version 3
run NoVlan-0-20251122-01:17:49-305983
attr configname NoVlan
attr datetime 20251122-01:17:49
attr datetimef 20251122-011749
attr experiment NoVlan
attr inifile omnetpp.ini
attr iterationvars ""
attr iterationvarsd ""
attr iterationvarsf ""
attr measurement ""
attr network VlanExample
attr processid 305983
attr repetition 0
attr replication #0
attr resultdir results
attr runnumber 0
attr seedset 0
config image-path ../../../images
config description "VLANs are not used by default"
config network VlanExample
config **.fcsMode "\"computed\""
config **.crcMode "\"computed\""
config *.*.llc.typename ""
config *.*.ethernet.typename EthernetLayer
config *.*.eth[*].typename LayeredEthernetInterface
config *.*.eth[*].bitrate 100Mbps
config *.host1.numApps 1
config *.host1.app[*].typename TcpSessionApp
config *.host1.app[*].connectAddress "\"host2\""
config *.host1.app[*].connectPort 1000
config *.host1.app[*].sendBytes 1MiB
config *.host1.app[*].tOpen 0s
config *.host1.app[*].tSend 0s
config *.host2.numApps 1
config *.host2.app[*].typename TcpEchoApp
config *.host2.app[0].localAddress "\"\""
config *.host2.app[0].localPort 1000
config *.*.numPcapRecorders 1
config *.host*.pcapRecorder[*].moduleNamePatterns "\"eth[0]\""
config *.host1.pcapRecorder[*].pcapFile "\"results/host1.pcap\""
config *.host2.pcapRecorder[*].pcapFile "\"results/host2.pcap\""
config *.switch*.pcapRecorder[*].moduleNamePatterns "\"eth[1]\""
config *.switch1.pcapRecorder[*].pcapFile "\"results/switch1.pcap\""
config *.switch2.pcapRecorder[*].pcapFile "\"results/switch2.pcap\""

par VlanExample.host1.ethg$o[0].channel typename "\"inet.node.ethernet.Eth100M\""
par VlanExample.host1.ethg$o[0].channel disabled false
attr mutable ""
par VlanExample.host1.ethg$o[0].channel delay 5e-08s
attr mutable ""
attr unit s
par VlanExample.host1.ethg$o[0].channel datarate 1e+08bps
attr mutable ""
attr unit bps
par VlanExample.host1.ethg$o[0].channel ber 0
attr mutable ""
par VlanExample.host1.ethg$o[0].channel per 0
attr mutable ""
par VlanExample.host1.ethg$o[0].channel length 10m
attr unit m
par VlanExample.switch1.ethg$o[0].channel typename "\"inet.node.ethernet.Eth100M\""
par VlanExample.switch1.ethg$o[0].channel disabled false
attr mutable ""
par VlanExample.switch1.ethg$o[0].channel delay 5e-08s
attr mutable ""
attr unit s
par VlanExample.switch1.ethg$o[0].channel datarate 1e+08bps
attr mutable ""
attr unit bps
par VlanExample.switch1.ethg$o[0].channel ber 0
attr mutable ""
par VlanExample.switch1.ethg$o[0].channel per 0
attr mutable ""
par VlanExample.switch1.ethg$o[0].channel length 10m
attr unit m
par VlanExample.host2.ethg$o[0].channel typename "\"inet.node.ethernet.Eth100M\""
par VlanExample.host2.ethg$o[0].channel disabled false
attr mutable ""
par VlanExample.host2.ethg$o[0].channel delay 5e-08s
attr mutable ""
attr unit s
par VlanExample.host2.ethg$o[0].channel datarate 1e+08bps
attr mutable ""
attr unit bps
par VlanExample.host2.ethg$o[0].channel ber 0
attr mutable ""
par VlanExample.host2.ethg$o[0].channel per 0
attr mutable ""
par VlanExample.host2.ethg$o[0].channel length 10m
attr unit m
par VlanExample.switch2.ethg$o[0].channel typename "\"inet.node.ethernet.Eth100M\""
par VlanExample.switch2.ethg$o[0].channel disabled false
attr mutable ""
par VlanExample.switch2.ethg$o[0].channel delay 5e-08s
attr mutable ""
attr unit s
par VlanExample.switch2.ethg$o[0].channel datarate 1e+08bps
attr mutable ""
attr unit bps
par VlanExample.switch2.ethg$o[0].channel ber 0
attr mutable ""
par VlanExample.switch2.ethg$o[0].channel per 0
attr mutable ""
par VlanExample.switch2.ethg$o[0].channel length 10m
attr unit m
par VlanExample.switch1.ethg$o[1].channel typename "\"inet.node.ethernet.Eth100M\""
par VlanExample.switch1.ethg$o[1].channel disabled false
attr mutable ""
par VlanExample.switch1.ethg$o[1].channel delay 5e-08s
attr mutable ""
attr unit s
par VlanExample.switch1.ethg$o[1].channel datarate 1e+08bps
attr mutable ""
attr unit bps
par VlanExample.switch1.ethg$o[1].channel ber 0
attr mutable ""
par VlanExample.switch1.ethg$o[1].channel per 0
attr mutable ""
par VlanExample.switch1.ethg$o[1].channel length 10m
attr unit m
par VlanExample.switch2.ethg$o[1].channel typename "\"inet.node.ethernet.Eth100M\""
par VlanExample.switch2.ethg$o[1].channel disabled false
attr mutable ""
par VlanExample.switch2.ethg$o[1].channel delay 5e-08s
attr mutable ""
attr unit s
par VlanExample.switch2.ethg$o[1].channel datarate 1e+08bps
attr mutable ""
attr unit bps
par VlanExample.switch2.ethg$o[1].channel ber 0
attr mutable ""
par VlanExample.switch2.ethg$o[1].channel per 0
attr mutable ""
par VlanExample.switch2.ethg$o[1].channel length 10m
attr unit m
par VlanExample.configurator typename "\"inet.networklayer.configurator.ipv4.Ipv4NetworkConfigurator\""
par VlanExample.configurator minLinkWeight 0.001
par VlanExample.configurator configureIsolatedNetworksSeparatly false
par VlanExample.configurator config "<config>...</config> at content:1"
par VlanExample.configurator assignAddresses true
par VlanExample.configurator assignUniqueAddresses true
par VlanExample.configurator assignDisjunctSubnetAddresses true
par VlanExample.configurator addStaticRoutes true
par VlanExample.configurator addDefaultRoutes true
par VlanExample.configurator addSubnetRoutes true
par VlanExample.configurator addDirectRoutes true
par VlanExample.configurator optimizeRoutes true
par VlanExample.configurator dumpTopology false
par VlanExample.configurator dumpLinks false
par VlanExample.configurator dumpAddresses false
par VlanExample.configurator dumpRoutes false
par VlanExample.configurator dumpConfig "\"\""
par VlanExample.host1.ethg$i[0].channel typename "\"ned.IdealChannel\""
par VlanExample.host1.eth[0].phys$o.channel typename "\"ned.IdealChannel\""
par VlanExample.host1.pcapRecorder[0] typename "\"inet.common.packet.recorder.PcapRecorder\""
par VlanExample.host1.pcapRecorder[0] verbose true
par VlanExample.host1.pcapRecorder[0] pcapFile "\"results/host1.pcap\""
par VlanExample.host1.pcapRecorder[0] fileFormat "\"pcapng\""
attr enum pcap,pcapng
par VlanExample.host1.pcapRecorder[0] snaplen 65535
par VlanExample.host1.pcapRecorder[0] dumpBadFrames true
par VlanExample.host1.pcapRecorder[0] moduleNamePatterns "\"eth[0]\""
par VlanExample.host1.pcapRecorder[0] sendingSignalNames "\"packetSentToLower\""
par VlanExample.host1.pcapRecorder[0] receivingSignalNames "\"packetReceivedFromLower\""
par VlanExample.host1.pcapRecorder[0] dumpProtocols "\"ethernetmac ppp ieee80211mac\""
par VlanExample.host1.pcapRecorder[0] packetFilter "(omnetpp::cValueHolder)holder: \"*\""
par VlanExample.host1.pcapRecorder[0] helpers "\"\""
par VlanExample.host1.pcapRecorder[0] alwaysFlush false
par VlanExample.host1.pcapRecorder[0] displayStringTextFormat "\"rec: %n pks\""
par VlanExample.host1.interfaceTable typename "\"inet.networklayer.common.InterfaceTable\""
par VlanExample.host1.interfaceTable displayAddresses false
par VlanExample.host1.cb typename "\"inet.common.MessageDispatcher\""
par VlanExample.host1.cb displayStringTextFormat "\"processed %p pk (%l)\""
par VlanExample.host1.cb forwardServiceRegistration true
par VlanExample.host1.cb forwardProtocolRegistration true
par VlanExample.host1.bl typename "\"inet.common.MessageDispatcher\""
par VlanExample.host1.bl displayStringTextFormat "\"processed %p pk (%l)\""
par VlanExample.host1.bl forwardServiceRegistration true
par VlanExample.host1.bl forwardProtocolRegistration true
par VlanExample.host1.ethernet.fcsInserter.out.channel typename "\"ned.IdealChannel\""
par VlanExample.host1.ethernet.lowerLayerIn.channel typename "\"ned.IdealChannel\""
par VlanExample.host1.ethernet.upperLayerIn.channel typename "\"ned.IdealChannel\""
par VlanExample.host1.ethernet.macHeaderChecker.out.channel typename "\"ned.IdealChannel\""
par VlanExample.host1.ethernet.macHeaderInserter typename "\"inet.linklayer.ethernet.modular.EthernetMacHeaderInserter\""
par VlanExample.host1.ethernet.macHeaderInserter displayStringTextFormat "\"processed %p pk (%l)\""
par VlanExample.host1.ethernet.macHeaderInserter interfaceTableModule "\"VlanExample.host1.interfaceTable\""
scalar VlanExample.host1.ethernet.macHeaderInserter outgoingPackets:count 1
attr recordingmode count
attr source "merge(packetPushedOut, packetPulledOut)"
attr title "outgoing packets, count"
attr unit pk
scalar VlanExample.host1.ethernet.macHeaderInserter outgoingPacketLengths:sum 336
attr interpolationmode none
attr recordingmode sum
attr source "packetLength(merge(packetPushedOut, packetPulledOut))"
attr title "outgoing packet lengths, sum"
attr unit b
statistic VlanExample.host1.ethernet.macHeaderInserter outgoingPacketLengths:histogram
field count 1
field mean 336
field stddev nan
field min 336
field max 336
field sum 336
field sqrsum 112896
attr interpolationmode none
attr recordingmode histogram
attr source "packetLength(merge(packetPushedOut, packetPulledOut))"
attr title "outgoing packet lengths"
attr unit b
bin	-inf	0
bin	335	0
bin	336	1
bin	337	0
scalar VlanExample.host1.ethernet.macHeaderInserter flowOutgoingPacketLengths:sum 0
attr interpolationmode none
attr recordingmode sum
attr source "packetLength(demuxFlow(merge(packetPushedOut, packetPulledOut)))"
attr title "flow specific outgoing packet lengths, sum"
attr unit b
statistic VlanExample.host1.ethernet.macHeaderInserter flowOutgoingPacketLengths:histogram
field count 0
field mean -nan
field stddev nan
field min nan
field max nan
field sum 0
field sqrsum 0
attr interpolationmode none
attr recordingmode histogram
attr source "packetLength(demuxFlow(merge(packetPushedOut, packetPulledOut)))"
attr title "flow specific outgoing packet lengths"
attr unit b
bin	-inf	0
bin	0	0
bin	1	0
scalar VlanExample.host1.ethernet.macHeaderInserter incomingPackets:count 1
attr recordingmode count
attr source "merge(packetPushedIn, packetPulledIn)"
attr title "incoming packets, count"
attr unit pk
scalar VlanExample.host1.ethernet.macHeaderInserter incomingPacketLengths:sum 224
attr interpolationmode none
attr recordingmode sum
attr source "packetLength(merge(packetPushedIn, packetPulledIn))"
attr title "incoming packet lengths, sum"
attr unit b
statistic VlanExample.host1.ethernet.macHeaderInserter incomingPacketLengths:histogram
field count 1
field mean 224
field stddev nan
field min 224
field max 224
field sum 224
field sqrsum 50176
attr interpolationmode none
attr recordingmode histogram
attr source "packetLength(merge(packetPushedIn, packetPulledIn))"
attr title "incoming packet lengths"
attr unit b
bin	-inf	0
bin	223	0
bin	224	1
bin	225	0
scalar VlanExample.host1.ethernet.macHeaderInserter flowIncomingPacketLengths:sum 0
attr interpolationmode none
attr recordingmode sum
attr source "packetLength(demuxFlow(merge(packetPushedIn, packetPulledIn)))"
attr title "flow specific incoming packet lengths, sum"
attr unit b
statistic VlanExample.host1.ethernet.macHeaderInserter flowIncomingPacketLengths:histogram
field count 0
field mean -nan
field stddev nan
field min nan
field max nan
field sum 0
field sqrsum 0
attr interpolationmode none
attr recordingmode histogram
attr source "packetLength(demuxFlow(merge(packetPushedIn, packetPulledIn)))"
attr title "flow specific incoming packet lengths"
attr unit b
bin	-inf	0
bin	0	0
bin	1	0
par VlanExample.host1.ethernet.paddingInserter typename "\"inet.protocolelement.common.PaddingInserter\""
par VlanExample.host1.ethernet.paddingInserter displayStringTextFormat "\"processed %p pk (%l)\""
par VlanExample.host1.ethernet.paddingInserter minLength 480b
attr unit b
par VlanExample.host1.ethernet.paddingInserter roundingLength 8b
attr unit b
par VlanExample.host1.ethernet.paddingInserter insertionPosition "\"back\""
attr enum front,back
scalar VlanExample.host1.ethernet.paddingInserter outgoingPackets:count 1
attr recordingmode count
attr source "merge(packetPushedOut, packetPulledOut)"
attr title "outgoing packets, count"
attr unit pk
scalar VlanExample.host1.ethernet.paddingInserter outgoingPacketLengths:sum 480
attr interpolationmode none
attr recordingmode sum
attr source "packetLength(merge(packetPushedOut, packetPulledOut))"
attr title "outgoing packet lengths, sum"
attr unit b
statistic VlanExample.host1.ethernet.paddingInserter outgoingPacketLengths:histogram
field count 1
field mean 480
field stddev nan
field min 480
field max 480
field sum 480
field sqrsum 230400
attr interpolationmode none
attr recordingmode histogram
attr source "packetLength(merge(packetPushedOut, packetPulledOut))"
attr title "outgoing packet lengths"
attr unit b
bin	-inf	0
bin	479	0
bin	480	1
bin	481	0
scalar VlanExample.host1.ethernet.paddingInserter flowOutgoingPacketLengths:sum 0
attr interpolationmode none
attr recordingmode sum
attr source "packetLength(demuxFlow(merge(packetPushedOut, packetPulledOut)))"
attr title "flow specific outgoing packet lengths, sum"
attr unit b
statistic VlanExample.host1.ethernet.paddingInserter flowOutgoingPacketLengths:histogram
field count 0
field mean -nan
field stddev nan
field min nan
field max nan
field sum 0
field sqrsum 0
attr interpolationmode none
attr recordingmode histogram
attr source "packetLength(demuxFlow(merge(packetPushedOut, packetPulledOut)))"
attr title "flow specific outgoing packet lengths"
attr unit b
bin	-inf	0
bin	0	0
bin	1	0
scalar VlanExample.host1.ethernet.paddingInserter incomingPackets:count 1
attr recordingmode count
attr source "merge(packetPushedIn, packetPulledIn)"
attr title "incoming packets, count"
attr unit pk
scalar VlanExample.host1.ethernet.paddingInserter incomingPacketLengths:sum 336
attr interpolationmode none
attr recordingmode sum
attr source "packetLength(merge(packetPushedIn, packetPulledIn))"
attr title "incoming packet lengths, sum"
attr unit b
statistic VlanExample.host1.ethernet.paddingInserter incomingPacketLengths:histogram
field count 1
field mean 336
field stddev nan
field min 336
field max 336
field sum 336
field sqrsum 112896
attr interpolationmode none
attr recordingmode histogram
attr source "packetLength(merge(packetPushedIn, packetPulledIn))"
attr title "incoming packet lengths"
attr unit b
bin	-inf	0
bin	335	0
bin	336	1
bin	337	0
scalar VlanExample.host1.ethernet.paddingInserter flowIncomingPacketLengths:sum 0
attr interpolationmode none
attr recordingmode sum
attr source "packetLength(demuxFlow(merge(packetPushedIn, packetPulledIn)))"
attr title "flow specific incoming packet lengths, sum"
attr unit b
statistic VlanExample.host1.ethernet.paddingInserter flowIncomingPacketLengths:histogram
field count 0
field mean -nan
field stddev nan
field min nan
field max nan
field sum 0
field sqrsum 0
attr interpolationmode none
attr recordingmode histogram
attr source "packetLength(demuxFlow(merge(packetPushedIn, packetPulledIn)))"
attr title "flow specific incoming packet lengths"
attr unit b
bin	-inf	0
bin	0	0
bin	1	0
par VlanExample.host1.ethernet.fcsInserter typename "\"inet.linklayer.ethernet.modular.EthernetFcsInserter\""
par VlanExample.host1.ethernet.fcsInserter displayStringTextFormat "\"processed %p pk (%l)\""
par VlanExample.host1.ethernet.fcsInserter fcsMode "\"computed\""
attr enum disabled,declared,computed
scalar VlanExample.host1.ethernet.fcsInserter outgoingPackets:count 1
attr recordingmode count
attr source "merge(packetPushedOut, packetPulledOut)"
attr title "outgoing packets, count"
attr unit pk
scalar VlanExample.host1.ethernet.fcsInserter outgoingPacketLengths:sum 512
attr interpolationmode none
attr recordingmode sum
attr source "packetLength(merge(packetPushedOut, packetPulledOut))"
attr title "outgoing packet lengths, sum"
attr unit b
statistic VlanExample.host1.ethernet.fcsInserter outgoingPacketLengths:histogram
field count 1
field mean 512
field stddev nan
field min 512
field max 512
field sum 512
field sqrsum 262144
attr interpolationmode none
attr recordingmode histogram
attr source "packetLength(merge(packetPushedOut, packetPulledOut))"
attr title "outgoing packet lengths"
attr unit b
bin	-inf	0
bin	511	0
bin	512	1
bin	513	0
scalar VlanExample.host1.ethernet.fcsInserter flowOutgoingPacketLengths:sum 0
attr interpolationmode none
attr recordingmode sum
attr source "packetLength(demuxFlow(merge(packetPushedOut, packetPulledOut)))"
attr title "flow specific outgoing packet lengths, sum"
attr unit b
statistic VlanExample.host1.ethernet.fcsInserter flowOutgoingPacketLengths:histogram
field count 0
field mean -nan
field stddev nan
field min nan
field max nan
field sum 0
field sqrsum 0
attr interpolationmode none
attr recordingmode histogram
attr source "packetLength(demuxFlow(merge(packetPushedOut, packetPulledOut)))"
attr title "flow specific outgoing packet lengths"
attr unit b
bin	-inf	0
bin	0	0
bin	1	0
scalar VlanExample.host1.ethernet.fcsInserter incomingPackets:count 1
attr recordingmode count
attr source "merge(packetPushedIn, packetPulledIn)"
attr title "incoming packets, count"
attr unit pk
scalar VlanExample.host1.ethernet.fcsInserter incomingPacketLengths:sum 480
attr interpolationmode none
attr recordingmode sum
attr source "packetLength(merge(packetPushedIn, packetPulledIn))"
attr title "incoming packet lengths, sum"
attr unit b
statistic VlanExample.host1.ethernet.fcsInserter incomingPacketLengths:histogram
field count 1
field mean 480
field stddev nan
field min 480
field max 480
field sum 480
field sqrsum 230400
attr interpolationmode none
attr recordingmode histogram
attr source "packetLength(merge(packetPushedIn, packetPulledIn))"
attr title "incoming packet lengths"
attr unit b
bin	-inf	0
bin	479	0
bin	480	1
bin	481	0
scalar VlanExample.host1.ethernet.fcsInserter flowIncomingPacketLengths:sum 0
attr interpolationmode none
attr recordingmode sum
attr source "packetLength(demuxFlow(merge(packetPushedIn, packetPulledIn)))"
attr title "flow specific incoming packet lengths, sum"
attr unit b
statistic VlanExample.host1.ethernet.fcsInserter flowIncomingPacketLengths:histogram
field count 0
field mean -nan
field stddev nan
field min nan
field max nan
field sum 0
field sqrsum 0
attr interpolationmode none
attr recordingmode histogram
attr source "packetLength(demuxFlow(merge(packetPushedIn, packetPulledIn)))"
attr title "flow specific incoming packet lengths"
attr unit b
bin	-inf	0
bin	0	0
bin	1	0
par VlanExample.host1.ethernet.macHeaderChecker typename "\"inet.linklayer.ethernet.modular.EthernetMacHeaderChecker\""
par VlanExample.host1.ethernet.macHeaderChecker displayStringTextFormat "\"dropped %d/%p pk (%k/%l)\""
par VlanExample.host1.ethernet.macHeaderChecker backpressure false
par VlanExample.host1.ethernet.macHeaderChecker interfaceTableModule "\"VlanExample.host1.interfaceTable\""
par VlanExample.host1.ethernet.macHeaderChecker promiscuous false
scalar VlanExample.host1.ethernet.macHeaderChecker outgoingPackets:count 0
attr recordingmode count
attr source "merge(packetPushedOut, packetPulledOut)"
attr title "outgoing packets, count"
attr unit pk
scalar VlanExample.host1.ethernet.macHeaderChecker outgoingPacketLengths:sum 0
attr interpolationmode none
attr recordingmode sum
attr source "packetLength(merge(packetPushedOut, packetPulledOut))"
attr title "outgoing packet lengths, sum"
attr unit b
statistic VlanExample.host1.ethernet.macHeaderChecker outgoingPacketLengths:histogram
field count 0
field mean -nan
field stddev nan
field min nan
field max nan
field sum 0
field sqrsum 0
attr interpolationmode none
attr recordingmode histogram
attr source "packetLength(merge(packetPushedOut, packetPulledOut))"
attr title "outgoing packet lengths"
attr unit b
bin	-inf	0
bin	0	0
bin	1	0
scalar VlanExample.host1.ethernet.macHeaderChecker flowOutgoingPacketLengths:sum 0
attr interpolationmode none
attr recordingmode sum
attr source "packetLength(demuxFlow(merge(packetPushedOut, packetPulledOut)))"
attr title "flow specific outgoing packet lengths, sum"
attr unit b
statistic VlanExample.host1.ethernet.macHeaderChecker flowOutgoingPacketLengths:histogram
field count 0
field mean -nan
field stddev nan
field min nan
field max nan
field sum 0
field sqrsum 0
attr interpolationmode none
attr recordingmode histogram
attr source "packetLength(demuxFlow(merge(packetPushedOut, packetPulledOut)))"
attr title "flow specific outgoing packet lengths"
attr unit b
bin	-inf	0
bin	0	0
bin	1	0
scalar VlanExample.host1.ethernet.macHeaderChecker incomingPackets:count 0
attr recordingmode count
attr source "merge(packetPushedIn, packetPulledIn)"
attr title "incoming packets, count"
attr unit pk
scalar VlanExample.host1.ethernet.macHeaderChecker incomingPacketLengths:sum 0
attr interpolationmode none
attr recordingmode sum
attr source "packetLength(merge(packetPushedIn, packetPulledIn))"
attr title "incoming packet lengths, sum"
attr unit b
statistic VlanExample.host1.ethernet.macHeaderChecker incomingPacketLengths:histogram
field count 0
field mean -nan
field stddev nan
field min nan
field max nan
field sum 0
field sqrsum 0
attr interpolationmode none
attr recordingmode histogram
attr source "packetLength(merge(packetPushedIn, packetPulledIn))"
attr title "incoming packet lengths"
attr unit b
bin	-inf	0
bin	0	0
bin	1	0
scalar VlanExample.host1.ethernet.macHeaderChecker flowIncomingPacketLengths:sum 0
attr interpolationmode none
attr recordingmode sum
attr source "packetLength(demuxFlow(merge(packetPushedIn, packetPulledIn)))"
attr title "flow specific incoming packet lengths, sum"
attr unit b
statistic VlanExample.host1.ethernet.macHeaderChecker flowIncomingPacketLengths:histogram
field count 0
field mean -nan
field stddev nan
field min nan
field max nan
field sum 0
field sqrsum 0
attr interpolationmode none
attr recordingmode histogram
attr source "packetLength(demuxFlow(merge(packetPushedIn, packetPulledIn)))"
attr title "flow specific incoming packet lengths"
attr unit b
bin	-inf	0
bin	0	0
bin	1	0
scalar VlanExample.host1.ethernet.macHeaderChecker droppedPackets:count 0
attr recordingmode count
attr source packetDropped
attr title "dropped packets, count"
attr unit pk
scalar VlanExample.host1.ethernet.macHeaderChecker droppedPacketLengths:sum 0
attr interpolationmode none
attr recordingmode sum
attr source packetLength(packetDropped)
attr title "dropped packet lengths, sum"
attr unit b
statistic VlanExample.host1.ethernet.macHeaderChecker droppedPacketLengths:histogram
field count 0
field mean -nan
field stddev nan
field min nan
field max nan
field sum 0
field sqrsum 0
attr interpolationmode none
attr recordingmode histogram
attr source packetLength(packetDropped)
attr title "dropped packet lengths"
attr unit b
bin	-inf	0
bin	0	0
bin	1	0
scalar VlanExample.host1.ethernet.macHeaderChecker flowDroppedPacketLengths:sum 0
attr interpolationmode none
attr recordingmode sum
attr source packetLength(demuxFlow(packetDropped))
attr title "flow specific dropped packet lengths, sum"
attr unit b
statistic VlanExample.host1.ethernet.macHeaderChecker flowDroppedPacketLengths:histogram
field count 0
field mean -nan
field stddev nan
field min nan
field max nan
field sum 0
field sqrsum 0
attr interpolationmode none
attr recordingmode histogram
attr source packetLength(demuxFlow(packetDropped))
attr title "flow specific dropped packet lengths"
attr unit b
bin	-inf	0
bin	0	0
bin	1	0
par VlanExample.host1.ethernet.fcsChecker typename "\"inet.linklayer.ethernet.modular.EthernetFcsChecker\""
par VlanExample.host1.ethernet.fcsChecker displayStringTextFormat "\"dropped %d/%p pk (%k/%l)\""
par VlanExample.host1.ethernet.fcsChecker backpressure false
par VlanExample.host1.ethernet.fcsChecker popFcs true
scalar VlanExample.host1.ethernet.fcsChecker outgoingPackets:count 0
attr recordingmode count
attr source "merge(packetPushedOut, packetPulledOut)"
attr title "outgoing packets, count"
attr unit pk
scalar VlanExample.host1.ethernet.fcsChecker outgoingPacketLengths:sum 0
attr interpolationmode none
attr recordingmode sum
attr source "packetLength(merge(packetPushedOut, packetPulledOut))"
attr title "outgoing packet lengths, sum"
attr unit b
statistic VlanExample.host1.ethernet.fcsChecker outgoingPacketLengths:histogram
field count 0
field mean -nan
field stddev nan
field min nan
field max nan
field sum 0
field sqrsum 0
attr interpolationmode none
attr recordingmode histogram
attr source "packetLength(merge(packetPushedOut, packetPulledOut))"
attr title "outgoing packet lengths"
attr unit b
bin	-inf	0
bin	0	0
bin	1	0
scalar VlanExample.host1.ethernet.fcsChecker flowOutgoingPacketLengths:sum 0
attr interpolationmode none
attr recordingmode sum
attr source "packetLength(demuxFlow(merge(packetPushedOut, packetPulledOut)))"
attr title "flow specific outgoing packet lengths, sum"
attr unit b
statistic VlanExample.host1.ethernet.fcsChecker flowOutgoingPacketLengths:histogram
field count 0
field mean -nan
field stddev nan
field min nan
field max nan
field sum 0
field sqrsum 0
attr interpolationmode none
attr recordingmode histogram
attr source "packetLength(demuxFlow(merge(packetPushedOut, packetPulledOut)))"
attr title "flow specific outgoing packet lengths"
attr unit b
bin	-inf	0
bin	0	0
bin	1	0
scalar VlanExample.host1.ethernet.fcsChecker incomingPackets:count 0
attr recordingmode count
attr source "merge(packetPushedIn, packetPulledIn)"
attr title "incoming packets, count"
attr unit pk
scalar VlanExample.host1.ethernet.fcsChecker incomingPacketLengths:sum 0
attr interpolationmode none
attr recordingmode sum
attr source "packetLength(merge(packetPushedIn, packetPulledIn))"
attr title "incoming packet lengths, sum"
attr unit b
statistic VlanExample.host1.ethernet.fcsChecker incomingPacketLengths:histogram
field count 0
field mean -nan
field stddev nan
field min nan
field max nan
field sum 0
field sqrsum 0
attr interpolationmode none
attr recordingmode histogram
attr source "packetLength(merge(packetPushedIn, packetPulledIn))"
attr title "incoming packet lengths"
attr unit b
bin	-inf	0
bin	0	0
bin	1	0
scalar VlanExample.host1.ethernet.fcsChecker flowIncomingPacketLengths:sum 0
attr interpolationmode none
attr recordingmode sum
attr source "packetLength(demuxFlow(merge(packetPushedIn, packetPulledIn)))"
attr title "flow specific incoming packet lengths, sum"
attr unit b
statistic VlanExample.host1.ethernet.fcsChecker flowIncomingPacketLengths:histogram
field count 0
field mean -nan
field stddev nan
field min nan
field max nan
field sum 0
field sqrsum 0
attr interpolationmode none
attr recordingmode histogram
attr source "packetLength(demuxFlow(merge(packetPushedIn, packetPulledIn)))"
attr title "flow specific incoming packet lengths"
attr unit b
bin	-inf	0
bin	0	0
bin	1	0
scalar VlanExample.host1.ethernet.fcsChecker droppedPackets:count 0
attr recordingmode count
attr source packetDropped
attr title "dropped packets, count"
attr unit pk
scalar VlanExample.host1.ethernet.fcsChecker droppedPacketLengths:sum 0
attr interpolationmode none
attr recordingmode sum
attr source packetLength(packetDropped)
attr title "dropped packet lengths, sum"
attr unit b
statistic VlanExample.host1.ethernet.fcsChecker droppedPacketLengths:histogram
field count 0
field mean -nan
field stddev nan
field min nan
field max nan
field sum 0
field sqrsum 0
attr interpolationmode none
attr recordingmode histogram
attr source packetLength(packetDropped)
attr title "dropped packet lengths"
attr unit b
bin	-inf	0
bin	0	0
bin	1	0
scalar VlanExample.host1.ethernet.fcsChecker flowDroppedPacketLengths:sum 0
attr interpolationmode none
attr recordingmode sum
attr source packetLength(demuxFlow(packetDropped))
attr title "flow specific dropped packet lengths, sum"
attr unit b
statistic VlanExample.host1.ethernet.fcsChecker flowDroppedPacketLengths:histogram
field count 0
field mean -nan
field stddev nan
field min nan
field max nan
field sum 0
field sqrsum 0
attr interpolationmode none
attr recordingmode histogram
attr source packetLength(demuxFlow(packetDropped))
attr title "flow specific dropped packet lengths"
attr unit b
bin	-inf	0
bin	0	0
bin	1	0
par VlanExample.host1.ethernet typename "\"inet.linklayer.ethernet.modular.EthernetLayer\""
par VlanExample.host1.ethernet interfaceTableModule "\"VlanExample.host1.interfaceTable\""
par VlanExample.host1.ethernet hasSocketSupport false
par VlanExample.host1.li typename "\"inet.common.MessageDispatcher\""
par VlanExample.host1.li displayStringTextFormat "\"processed %p pk (%l)\""
par VlanExample.host1.li forwardServiceRegistration true
par VlanExample.host1.li forwardProtocolRegistration true
par VlanExample.host1.lo[0].upperLayerIn.channel typename "\"ned.IdealChannel\""
par VlanExample.host1.lo[0].lo.upperLayerOut.channel typename "\"ned.IdealChannel\""
par VlanExample.host1.lo[0].lo typename "\"inet.linklayer.loopback.Loopback\""
par VlanExample.host1.lo[0].lo interfaceTableModule "\"VlanExample.host1.interfaceTable\""
par VlanExample.host1.lo[0].lo mtu 4470B
attr unit B
scalar VlanExample.host1.lo[0].lo rcvdPkFromHl:count 0
attr interpolationmode none
attr recordingmode count
attr source packetReceivedFromUpper
attr title "packets received from higher layer, count"
scalar VlanExample.host1.lo[0].lo rcvdPkFromHl:sum(packetBytes) 0
attr interpolationmode none
attr recordingmode sum(packetBytes)
attr source packetReceivedFromUpper
attr title "packets received from higher layer, sum(packetBytes)"
scalar VlanExample.host1.lo[0].lo passedUpPk:count 0
attr interpolationmode none
attr recordingmode count
attr source packetSentToUpper
attr title "packets passed to higher layer, count"
scalar VlanExample.host1.lo[0].lo passedUpPk:sum(packetBytes) 0
attr interpolationmode none
attr recordingmode sum(packetBytes)
attr source packetSentToUpper
attr title "packets passed to higher layer, sum(packetBytes)"
par VlanExample.host1.lo[0] typename "\"inet.linklayer.loopback.LoopbackInterface\""
par VlanExample.host1.lo[0] displayStringTextFormat "\"%a (%i)\\n%m\""
par VlanExample.host1.lo[0] recordPcap false
par VlanExample.host1.lo[0] numPcapRecorders 0
par VlanExample.host1.lo[0] interfaceTableModule "\"VlanExample.host1.interfaceTable\""
scalar VlanExample.host1.lo[0] packetDropInterfaceDown:count 0
attr interpolationmode none
attr recordingmode count
attr source packetDropReasonIsInterfaceDown(packetDropped)
attr title "packet drops: interface down, count"
scalar VlanExample.host1.lo[0] packetDropInterfaceDown:sum(packetBytes) 0
attr interpolationmode none
attr recordingmode sum(packetBytes)
attr source packetDropReasonIsInterfaceDown(packetDropped)
attr title "packet drops: interface down, sum(packetBytes)"
scalar VlanExample.host1.lo[0] packetDropNoCarrier:count 0
attr interpolationmode none
attr recordingmode count
attr source packetDropReasonIsNoCarrier(packetDropped)
attr title "packet drops: no carrier, count"
scalar VlanExample.host1.lo[0] packetDropNoCarrier:sum(packetBytes) 0
attr interpolationmode none
attr recordingmode sum(packetBytes)
attr source packetDropReasonIsNoCarrier(packetDropped)
attr title "packet drops: no carrier, sum(packetBytes)"
par VlanExample.host1.eth[0].phyLayer.lowerLayerOut.channel typename "\"ned.IdealChannel\""
par VlanExample.host1.eth[0].phys$i.channel typename "\"ned.IdealChannel\""
par VlanExample.host1.eth[0].upperLayerIn.channel typename "\"ned.IdealChannel\""
par VlanExample.host1.eth[0].macLayer.upperLayerOut.channel typename "\"ned.IdealChannel\""
par VlanExample.host1.eth[0].macLayer.upperLayerIn.channel typename "\"ned.IdealChannel\""
par VlanExample.host1.eth[0].macLayer.outboundEmitter.out.channel typename "\"ned.IdealChannel\""
par VlanExample.host1.eth[0].macLayer.lowerLayerIn.channel typename "\"ned.IdealChannel\""
par VlanExample.host1.eth[0].macLayer.fcsChecker.out.channel typename "\"ned.IdealChannel\""
par VlanExample.host1.eth[0].macLayer.queue typename "\"inet.queueing.queue.PacketQueue\""
par VlanExample.host1.eth[0].macLayer.queue displayStringTextFormat "\"contains %p pk (%l) pushed %u\\npulled %o removed %r dropped %d\""
par VlanExample.host1.eth[0].macLayer.queue packetCapacity -1
par VlanExample.host1.eth[0].macLayer.queue dataCapacity -1b
attr unit b
par VlanExample.host1.eth[0].macLayer.queue dropperClass "\"\""
par VlanExample.host1.eth[0].macLayer.queue comparatorClass "\"\""
par VlanExample.host1.eth[0].macLayer.queue bufferModule "\"\""
scalar VlanExample.host1.eth[0].macLayer.queue queueLength:last 0
attr autoWarmupFilter false
attr interpolationmode sample-hold
attr recordingmode last
attr source "warmup(atomic(constant0(packetPushEnded) + count(packetPushStarted) - count(packetPulled) - count(packetRemoved) - count(packetDropped)))"
attr title "queue length, last"
attr unit pk
scalar VlanExample.host1.eth[0].macLayer.queue queueLength:max 1
attr autoWarmupFilter false
attr interpolationmode sample-hold
attr recordingmode max
attr source "warmup(atomic(constant0(packetPushEnded) + count(packetPushStarted) - count(packetPulled) - count(packetRemoved) - count(packetDropped)))"
attr title "queue length, max"
attr unit pk
scalar VlanExample.host1.eth[0].macLayer.queue queueLength:timeavg 0
attr autoWarmupFilter false
attr interpolationmode sample-hold
attr recordingmode timeavg
attr source "warmup(atomic(constant0(packetPushEnded) + count(packetPushStarted) - count(packetPulled) - count(packetRemoved) - count(packetDropped)))"
attr title "queue length, timeavg"
attr unit pk
scalar VlanExample.host1.eth[0].macLayer.queue queueBitLength:last 0
attr autoWarmupFilter false
attr interpolationmode sample-hold
attr recordingmode last
attr source "warmup(atomic(constant0(packetPushEnded) + sum(packetLength(packetPushStarted)) - sum(packetLength(packetPulled)) - sum(packetLength(packetRemoved)) - sum(packetLength(packetDropped))))"
attr title "queue bit length, last"
attr unit b
scalar VlanExample.host1.eth[0].macLayer.queue queueBitLength:max 512
attr autoWarmupFilter false
attr interpolationmode sample-hold
attr recordingmode max
attr source "warmup(atomic(constant0(packetPushEnded) + sum(packetLength(packetPushStarted)) - sum(packetLength(packetPulled)) - sum(packetLength(packetRemoved)) - sum(packetLength(packetDropped))))"
attr title "queue bit length, max"
attr unit b
scalar VlanExample.host1.eth[0].macLayer.queue queueBitLength:timeavg 0
attr autoWarmupFilter false
attr interpolationmode sample-hold
attr recordingmode timeavg
attr source "warmup(atomic(constant0(packetPushEnded) + sum(packetLength(packetPushStarted)) - sum(packetLength(packetPulled)) - sum(packetLength(packetRemoved)) - sum(packetLength(packetDropped))))"
attr title "queue bit length, timeavg"
attr unit b
statistic VlanExample.host1.eth[0].macLayer.queue queueingTime:histogram
field count 1
field mean 0
field stddev nan
field min 0
field max 0
field sum 0
field sqrsum 0
attr interpolationmode none
attr recordingmode histogram
attr source queueingTime(packetPulled)
attr title "queueing times"
attr unit s
bin	-inf	0
bin	-0.5	0
bin	-0.48	0
bin	-0.46	0
bin	-0.44	0
bin	-0.42	0
bin	-0.4	0
bin	-0.38	0
bin	-0.36	0
bin	-0.34	0
bin	-0.32	0
bin	-0.3	0
bin	-0.28	0
bin	-0.26	0
bin	-0.24	0
bin	-0.22	0
bin	-0.2	0
bin	-0.18	0
bin	-0.16	0
bin	-0.14	0
bin	-0.12	0
bin	-0.1	0
bin	-0.08	0
bin	-0.06	0
bin	-0.04	0
bin	-0.02	0
bin	0	1
bin	0.02	0
bin	0.04	0
bin	0.06	0
bin	0.08	0
bin	0.1	0
bin	0.12	0
bin	0.14	0
bin	0.16	0
bin	0.18	0
bin	0.2	0
bin	0.22	0
bin	0.24	0
bin	0.26	0
bin	0.28	0
bin	0.3	0
bin	0.32	0
bin	0.34	0
bin	0.36	0
bin	0.38	0
bin	0.4	0
bin	0.42	0
bin	0.44	0
bin	0.46	0
bin	0.48	0
bin	0.5	0
scalar VlanExample.host1.eth[0].macLayer.queue outgoingPackets:count 1
attr recordingmode count
attr source packetPulled
attr title "outgoing packets, count"
attr unit pk
scalar VlanExample.host1.eth[0].macLayer.queue outgoingPacketLengths:sum 512
attr interpolationmode none
attr recordingmode sum
attr source packetLength(packetPulled)
attr title "outgoing packet lengths, sum"
attr unit b
statistic VlanExample.host1.eth[0].macLayer.queue outgoingPacketLengths:histogram
field count 1
field mean 512
field stddev nan
field min 512
field max 512
field sum 512
field sqrsum 262144
attr interpolationmode none
attr recordingmode histogram
attr source packetLength(packetPulled)
attr title "outgoing packet lengths"
attr unit b
bin	-inf	0
bin	511	0
bin	512	1
bin	513	0
statistic VlanExample.host1.eth[0].macLayer.queue flowQueueingTime:histogram
field count 0
field mean -nan
field stddev nan
field min nan
field max nan
field sum 0
field sqrsum 0
attr interpolationmode none
attr recordingmode histogram
attr source queueingTime(demuxFlow(packetPulled))
attr title "flow queueing times"
attr unit s
bin	-inf	0
bin	0	0
bin	1	0
scalar VlanExample.host1.eth[0].macLayer.queue incomingPackets:count 1
attr recordingmode count
attr source packetPushStarted
attr title "incoming packets, count"
attr unit pk
scalar VlanExample.host1.eth[0].macLayer.queue incomingPacketLengths:sum 512
attr interpolationmode none
attr recordingmode sum
attr source packetLength(packetPushStarted)
attr title "incoming packet lengths, sum"
attr unit b
statistic VlanExample.host1.eth[0].macLayer.queue incomingPacketLengths:histogram
field count 1
field mean 512
field stddev nan
field min 512
field max 512
field sum 512
field sqrsum 262144
attr interpolationmode none
attr recordingmode histogram
attr source packetLength(packetPushStarted)
attr title "incoming packet lengths"
attr unit b
bin	-inf	0
bin	511	0
bin	512	1
bin	513	0
scalar VlanExample.host1.eth[0].macLayer.queue droppedPacketsQueueOverflow:count 0
attr interpolationmode none
attr recordingmode count
attr source packetDropReasonIsQueueOverflow(packetDropped)
attr title "dropped packets: queue overflow, count"
attr unit pk
scalar VlanExample.host1.eth[0].macLayer.queue droppedPacketLengthsQueueOverflow:sum 0
attr interpolationmode none
attr recordingmode sum
attr source packetLength(packetDropReasonIsQueueOverflow(packetDropped))
attr title "dropped packet lengths: queue overflow, sum"
attr unit b
par VlanExample.host1.eth[0].macLayer.server typename "\"inet.queueing.server.InstantServer\""
par VlanExample.host1.eth[0].macLayer.server displayStringTextFormat "\"served %p pk (%l)\""
par VlanExample.host1.eth[0].macLayer.server serveSchedulingPriority 0
scalar VlanExample.host1.eth[0].macLayer.server incomingPackets:count 1
attr recordingmode count
attr source packetPulled
attr title "incoming packets, count"
attr unit pk
scalar VlanExample.host1.eth[0].macLayer.server incomingPacketLengths:sum 512
attr interpolationmode none
attr recordingmode sum
attr source packetLength(packetPulled)
attr title "incoming packet lengths, sum"
attr unit b
statistic VlanExample.host1.eth[0].macLayer.server incomingPacketLengths:histogram
field count 1
field mean 512
field stddev nan
field min 512
field max 512
field sum 512
field sqrsum 262144
attr interpolationmode none
attr recordingmode histogram
attr source packetLength(packetPulled)
attr title "incoming packet lengths"
attr unit b
bin	-inf	0
bin	511	0
bin	512	1
bin	513	0
scalar VlanExample.host1.eth[0].macLayer.server outgoingPackets:count 1
attr recordingmode count
attr source packetPushed
attr title "outgoing packets, count"
attr unit pk
scalar VlanExample.host1.eth[0].macLayer.server outgoingPacketLengths:sum 512
attr interpolationmode none
attr recordingmode sum
attr source packetLength(packetPushed)
attr title "outgoing packet lengths, sum"
attr unit b
statistic VlanExample.host1.eth[0].macLayer.server outgoingPacketLengths:histogram
field count 1
field mean 512
field stddev nan
field min 512
field max 512
field sum 512
field sqrsum 262144
attr interpolationmode none
attr recordingmode histogram
attr source packetLength(packetPushed)
attr title "outgoing packet lengths"
attr unit b
bin	-inf	0
bin	511	0
bin	512	1
bin	513	0
par VlanExample.host1.eth[0].macLayer.outboundEmitter typename "\"inet.protocolelement.common.PacketEmitter\""
par VlanExample.host1.eth[0].macLayer.outboundEmitter displayStringTextFormat "\"processed %p pk (%l)\""
par VlanExample.host1.eth[0].macLayer.outboundEmitter packetFilter "(omnetpp::cValueHolder)holder: \"*\""
par VlanExample.host1.eth[0].macLayer.outboundEmitter direction "\"outbound\""
attr enum undefined,inbound,outbound
par VlanExample.host1.eth[0].macLayer.outboundEmitter signalName "\"packetSentToLower\""
scalar VlanExample.host1.eth[0].macLayer.outboundEmitter outgoingPackets:count 1
attr recordingmode count
attr source "merge(packetPushedOut, packetPulledOut)"
attr title "outgoing packets, count"
attr unit pk
scalar VlanExample.host1.eth[0].macLayer.outboundEmitter outgoingPacketLengths:sum 512
attr interpolationmode none
attr recordingmode sum
attr source "packetLength(merge(packetPushedOut, packetPulledOut))"
attr title "outgoing packet lengths, sum"
attr unit b
statistic VlanExample.host1.eth[0].macLayer.outboundEmitter outgoingPacketLengths:histogram
field count 1
field mean 512
field stddev nan
field min 512
field max 512
field sum 512
field sqrsum 262144
attr interpolationmode none
attr recordingmode histogram
attr source "packetLength(merge(packetPushedOut, packetPulledOut))"
attr title "outgoing packet lengths"
attr unit b
bin	-inf	0
bin	511	0
bin	512	1
bin	513	0
scalar VlanExample.host1.eth[0].macLayer.outboundEmitter flowOutgoingPacketLengths:sum 0
attr interpolationmode none
attr recordingmode sum
attr source "packetLength(demuxFlow(merge(packetPushedOut, packetPulledOut)))"
attr title "flow specific outgoing packet lengths, sum"
attr unit b
statistic VlanExample.host1.eth[0].macLayer.outboundEmitter flowOutgoingPacketLengths:histogram
field count 0
field mean -nan
field stddev nan
field min nan
field max nan
field sum 0
field sqrsum 0
attr interpolationmode none
attr recordingmode histogram
attr source "packetLength(demuxFlow(merge(packetPushedOut, packetPulledOut)))"
attr title "flow specific outgoing packet lengths"
attr unit b
bin	-inf	0
bin	0	0
bin	1	0
scalar VlanExample.host1.eth[0].macLayer.outboundEmitter incomingPackets:count 1
attr recordingmode count
attr source "merge(packetPushedIn, packetPulledIn)"
attr title "incoming packets, count"
attr unit pk
scalar VlanExample.host1.eth[0].macLayer.outboundEmitter incomingPacketLengths:sum 512
attr interpolationmode none
attr recordingmode sum
attr source "packetLength(merge(packetPushedIn, packetPulledIn))"
attr title "incoming packet lengths, sum"
attr unit b
statistic VlanExample.host1.eth[0].macLayer.outboundEmitter incomingPacketLengths:histogram
field count 1
field mean 512
field stddev nan
field min 512
field max 512
field sum 512
field sqrsum 262144
attr interpolationmode none
attr recordingmode histogram
attr source "packetLength(merge(packetPushedIn, packetPulledIn))"
attr title "incoming packet lengths"
attr unit b
bin	-inf	0
bin	511	0
bin	512	1
bin	513	0
scalar VlanExample.host1.eth[0].macLayer.outboundEmitter flowIncomingPacketLengths:sum 0
attr interpolationmode none
attr recordingmode sum
attr source "packetLength(demuxFlow(merge(packetPushedIn, packetPulledIn)))"
attr title "flow specific incoming packet lengths, sum"
attr unit b
statistic VlanExample.host1.eth[0].macLayer.outboundEmitter flowIncomingPacketLengths:histogram
field count 0
field mean -nan
field stddev nan
field min nan
field max nan
field sum 0
field sqrsum 0
attr interpolationmode none
attr recordingmode histogram
attr source "packetLength(demuxFlow(merge(packetPushedIn, packetPulledIn)))"
attr title "flow specific incoming packet lengths"
attr unit b
bin	-inf	0
bin	0	0
bin	1	0
par VlanExample.host1.eth[0].macLayer.fcsChecker typename "\"inet.linklayer.ethernet.modular.EthernetFcsChecker\""
par VlanExample.host1.eth[0].macLayer.fcsChecker displayStringTextFormat "\"dropped %d/%p pk (%k/%l)\""
par VlanExample.host1.eth[0].macLayer.fcsChecker backpressure false
par VlanExample.host1.eth[0].macLayer.fcsChecker popFcs false
scalar VlanExample.host1.eth[0].macLayer.fcsChecker outgoingPackets:count 0
attr recordingmode count
attr source "merge(packetPushedOut, packetPulledOut)"
attr title "outgoing packets, count"
attr unit pk
scalar VlanExample.host1.eth[0].macLayer.fcsChecker outgoingPacketLengths:sum 0
attr interpolationmode none
attr recordingmode sum
attr source "packetLength(merge(packetPushedOut, packetPulledOut))"
attr title "outgoing packet lengths, sum"
attr unit b
statistic VlanExample.host1.eth[0].macLayer.fcsChecker outgoingPacketLengths:histogram
field count 0
field mean -nan
field stddev nan
field min nan
field max nan
field sum 0
field sqrsum 0
attr interpolationmode none
attr recordingmode histogram
attr source "packetLength(merge(packetPushedOut, packetPulledOut))"
attr title "outgoing packet lengths"
attr unit b
bin	-inf	0
bin	0	0
bin	1	0
scalar VlanExample.host1.eth[0].macLayer.fcsChecker flowOutgoingPacketLengths:sum 0
attr interpolationmode none
attr recordingmode sum
attr source "packetLength(demuxFlow(merge(packetPushedOut, packetPulledOut)))"
attr title "flow specific outgoing packet lengths, sum"
attr unit b
statistic VlanExample.host1.eth[0].macLayer.fcsChecker flowOutgoingPacketLengths:histogram
field count 0
field mean -nan
field stddev nan
field min nan
field max nan
field sum 0
field sqrsum 0
attr interpolationmode none
attr recordingmode histogram
attr source "packetLength(demuxFlow(merge(packetPushedOut, packetPulledOut)))"
attr title "flow specific outgoing packet lengths"
attr unit b
bin	-inf	0
bin	0	0
bin	1	0
scalar VlanExample.host1.eth[0].macLayer.fcsChecker incomingPackets:count 0
attr recordingmode count
attr source "merge(packetPushedIn, packetPulledIn)"
attr title "incoming packets, count"
attr unit pk
scalar VlanExample.host1.eth[0].macLayer.fcsChecker incomingPacketLengths:sum 0
attr interpolationmode none
attr recordingmode sum
attr source "packetLength(merge(packetPushedIn, packetPulledIn))"
attr title "incoming packet lengths, sum"
attr unit b
statistic VlanExample.host1.eth[0].macLayer.fcsChecker incomingPacketLengths:histogram
field count 0
field mean -nan
field stddev nan
field min nan
field max nan
field sum 0
field sqrsum 0
attr interpolationmode none
attr recordingmode histogram
attr source "packetLength(merge(packetPushedIn, packetPulledIn))"
attr title "incoming packet lengths"
attr unit b
bin	-inf	0
bin	0	0
bin	1	0
scalar VlanExample.host1.eth[0].macLayer.fcsChecker flowIncomingPacketLengths:sum 0
attr interpolationmode none
attr recordingmode sum
attr source "packetLength(demuxFlow(merge(packetPushedIn, packetPulledIn)))"
attr title "flow specific incoming packet lengths, sum"
attr unit b
statistic VlanExample.host1.eth[0].macLayer.fcsChecker flowIncomingPacketLengths:histogram
field count 0
field mean -nan
field stddev nan
field min nan
field max nan
field sum 0
field sqrsum 0
attr interpolationmode none
attr recordingmode histogram
attr source "packetLength(demuxFlow(merge(packetPushedIn, packetPulledIn)))"
attr title "flow specific incoming packet lengths"
attr unit b
bin	-inf	0
bin	0	0
bin	1	0
scalar VlanExample.host1.eth[0].macLayer.fcsChecker droppedPackets:count 0
attr recordingmode count
attr source packetDropped
attr title "dropped packets, count"
attr unit pk
scalar VlanExample.host1.eth[0].macLayer.fcsChecker droppedPacketLengths:sum 0
attr interpolationmode none
attr recordingmode sum
attr source packetLength(packetDropped)
attr title "dropped packet lengths, sum"
attr unit b
statistic VlanExample.host1.eth[0].macLayer.fcsChecker droppedPacketLengths:histogram
field count 0
field mean -nan
field stddev nan
field min nan
field max nan
field sum 0
field sqrsum 0
attr interpolationmode none
attr recordingmode histogram
attr source packetLength(packetDropped)
attr title "dropped packet lengths"
attr unit b
bin	-inf	0
bin	0	0
bin	1	0
scalar VlanExample.host1.eth[0].macLayer.fcsChecker flowDroppedPacketLengths:sum 0
attr interpolationmode none
attr recordingmode sum
attr source packetLength(demuxFlow(packetDropped))
attr title "flow specific dropped packet lengths, sum"
attr unit b
statistic VlanExample.host1.eth[0].macLayer.fcsChecker flowDroppedPacketLengths:histogram
field count 0
field mean -nan
field stddev nan
field min nan
field max nan
field sum 0
field sqrsum 0
attr interpolationmode none
attr recordingmode histogram
attr source packetLength(demuxFlow(packetDropped))
attr title "flow specific dropped packet lengths"
attr unit b
bin	-inf	0
bin	0	0
bin	1	0
par VlanExample.host1.eth[0].macLayer.inboundEmitter typename "\"inet.protocolelement.common.PacketEmitter\""
par VlanExample.host1.eth[0].macLayer.inboundEmitter displayStringTextFormat "\"processed %p pk (%l)\""
par VlanExample.host1.eth[0].macLayer.inboundEmitter packetFilter "(omnetpp::cValueHolder)holder: \"*\""
par VlanExample.host1.eth[0].macLayer.inboundEmitter direction "\"inbound\""
attr enum undefined,inbound,outbound
par VlanExample.host1.eth[0].macLayer.inboundEmitter signalName "\"packetReceivedFromLower\""
scalar VlanExample.host1.eth[0].macLayer.inboundEmitter outgoingPackets:count 0
attr recordingmode count
attr source "merge(packetPushedOut, packetPulledOut)"
attr title "outgoing packets, count"
attr unit pk
scalar VlanExample.host1.eth[0].macLayer.inboundEmitter outgoingPacketLengths:sum 0
attr interpolationmode none
attr recordingmode sum
attr source "packetLength(merge(packetPushedOut, packetPulledOut))"
attr title "outgoing packet lengths, sum"
attr unit b
statistic VlanExample.host1.eth[0].macLayer.inboundEmitter outgoingPacketLengths:histogram
field count 0
field mean -nan
field stddev nan
field min nan
field max nan
field sum 0
field sqrsum 0
attr interpolationmode none
attr recordingmode histogram
attr source "packetLength(merge(packetPushedOut, packetPulledOut))"
attr title "outgoing packet lengths"
attr unit b
bin	-inf	0
bin	0	0
bin	1	0
scalar VlanExample.host1.eth[0].macLayer.inboundEmitter flowOutgoingPacketLengths:sum 0
attr interpolationmode none
attr recordingmode sum
attr source "packetLength(demuxFlow(merge(packetPushedOut, packetPulledOut)))"
attr title "flow specific outgoing packet lengths, sum"
attr unit b
statistic VlanExample.host1.eth[0].macLayer.inboundEmitter flowOutgoingPacketLengths:histogram
field count 0
field mean -nan
field stddev nan
field min nan
field max nan
field sum 0
field sqrsum 0
attr interpolationmode none
attr recordingmode histogram
attr source "packetLength(demuxFlow(merge(packetPushedOut, packetPulledOut)))"
attr title "flow specific outgoing packet lengths"
attr unit b
bin	-inf	0
bin	0	0
bin	1	0
scalar VlanExample.host1.eth[0].macLayer.inboundEmitter incomingPackets:count 0
attr recordingmode count
attr source "merge(packetPushedIn, packetPulledIn)"
attr title "incoming packets, count"
attr unit pk
scalar VlanExample.host1.eth[0].macLayer.inboundEmitter incomingPacketLengths:sum 0
attr interpolationmode none
attr recordingmode sum
attr source "packetLength(merge(packetPushedIn, packetPulledIn))"
attr title "incoming packet lengths, sum"
attr unit b
statistic VlanExample.host1.eth[0].macLayer.inboundEmitter incomingPacketLengths:histogram
field count 0
field mean -nan
field stddev nan
field min nan
field max nan
field sum 0
field sqrsum 0
attr interpolationmode none
attr recordingmode histogram
attr source "packetLength(merge(packetPushedIn, packetPulledIn))"
attr title "incoming packet lengths"
attr unit b
bin	-inf	0
bin	0	0
bin	1	0
scalar VlanExample.host1.eth[0].macLayer.inboundEmitter flowIncomingPacketLengths:sum 0
attr interpolationmode none
attr recordingmode sum
attr source "packetLength(demuxFlow(merge(packetPushedIn, packetPulledIn)))"
attr title "flow specific incoming packet lengths, sum"
attr unit b
statistic VlanExample.host1.eth[0].macLayer.inboundEmitter flowIncomingPacketLengths:histogram
field count 0
field mean -nan
field stddev nan
field min nan
field max nan
field sum 0
field sqrsum 0
attr interpolationmode none
attr recordingmode histogram
attr source "packetLength(demuxFlow(merge(packetPushedIn, packetPulledIn)))"
attr title "flow specific incoming packet lengths"
attr unit b
bin	-inf	0
bin	0	0
bin	1	0
par VlanExample.host1.eth[0].macLayer typename "\"inet.linklayer.ethernet.modular.EthernetMacLayer\""
par VlanExample.host1.eth[0].macLayer bitrate 1e+08bps
attr unit bps
par VlanExample.host1.eth[0].phyLayer.upperLayerIn.channel typename "\"ned.IdealChannel\""
par VlanExample.host1.eth[0].phyLayer.transmitter.out.channel typename "\"ned.IdealChannel\""
par VlanExample.host1.eth[0].phyLayer.lowerLayerIn.channel typename "\"ned.IdealChannel\""
par VlanExample.host1.eth[0].phyLayer.phyHeaderChecker.out.channel typename "\"ned.IdealChannel\""
par VlanExample.host1.eth[0].phyLayer.phyHeaderInserter typename "\"inet.physicallayer.wired.ethernet.EthernetPhyHeaderInserter\""
par VlanExample.host1.eth[0].phyLayer.phyHeaderInserter displayStringTextFormat "\"processed %p pk (%l)\""
scalar VlanExample.host1.eth[0].phyLayer.phyHeaderInserter outgoingPackets:count 1
attr recordingmode count
attr source "merge(packetPushedOut, packetPulledOut)"
attr title "outgoing packets, count"
attr unit pk
scalar VlanExample.host1.eth[0].phyLayer.phyHeaderInserter outgoingPacketLengths:sum 576
attr interpolationmode none
attr recordingmode sum
attr source "packetLength(merge(packetPushedOut, packetPulledOut))"
attr title "outgoing packet lengths, sum"
attr unit b
statistic VlanExample.host1.eth[0].phyLayer.phyHeaderInserter outgoingPacketLengths:histogram
field count 1
field mean 576
field stddev nan
field min 576
field max 576
field sum 576
field sqrsum 331776
attr interpolationmode none
attr recordingmode histogram
attr source "packetLength(merge(packetPushedOut, packetPulledOut))"
attr title "outgoing packet lengths"
attr unit b
bin	-inf	0
bin	575	0
bin	576	1
bin	577	0
scalar VlanExample.host1.eth[0].phyLayer.phyHeaderInserter flowOutgoingPacketLengths:sum 0
attr interpolationmode none
attr recordingmode sum
attr source "packetLength(demuxFlow(merge(packetPushedOut, packetPulledOut)))"
attr title "flow specific outgoing packet lengths, sum"
attr unit b
statistic VlanExample.host1.eth[0].phyLayer.phyHeaderInserter flowOutgoingPacketLengths:histogram
field count 0
field mean -nan
field stddev nan
field min nan
field max nan
field sum 0
field sqrsum 0
attr interpolationmode none
attr recordingmode histogram
attr source "packetLength(demuxFlow(merge(packetPushedOut, packetPulledOut)))"
attr title "flow specific outgoing packet lengths"
attr unit b
bin	-inf	0
bin	0	0
bin	1	0
scalar VlanExample.host1.eth[0].phyLayer.phyHeaderInserter incomingPackets:count 1
attr recordingmode count
attr source "merge(packetPushedIn, packetPulledIn)"
attr title "incoming packets, count"
attr unit pk
scalar VlanExample.host1.eth[0].phyLayer.phyHeaderInserter incomingPacketLengths:sum 512
attr interpolationmode none
attr recordingmode sum
attr source "packetLength(merge(packetPushedIn, packetPulledIn))"
attr title "incoming packet lengths, sum"
attr unit b
statistic VlanExample.host1.eth[0].phyLayer.phyHeaderInserter incomingPacketLengths:histogram
field count 1
field mean 512
field stddev nan
field min 512
field max 512
field sum 512
field sqrsum 262144
attr interpolationmode none
attr recordingmode histogram
attr source "packetLength(merge(packetPushedIn, packetPulledIn))"
attr title "incoming packet lengths"
attr unit b
bin	-inf	0
bin	511	0
bin	512	1
bin	513	0
scalar VlanExample.host1.eth[0].phyLayer.phyHeaderInserter flowIncomingPacketLengths:sum 0
attr interpolationmode none
attr recordingmode sum
attr source "packetLength(demuxFlow(merge(packetPushedIn, packetPulledIn)))"
attr title "flow specific incoming packet lengths, sum"
attr unit b
statistic VlanExample.host1.eth[0].phyLayer.phyHeaderInserter flowIncomingPacketLengths:histogram
field count 0
field mean -nan
field stddev nan
field min nan
field max nan
field sum 0
field sqrsum 0
attr interpolationmode none
attr recordingmode histogram
attr source "packetLength(demuxFlow(merge(packetPushedIn, packetPulledIn)))"
attr title "flow specific incoming packet lengths"
attr unit b
bin	-inf	0
bin	0	0
bin	1	0
par VlanExample.host1.eth[0].phyLayer.interFrameGapInserter typename "\"inet.protocolelement.common.InterpacketGapInserter\""
par VlanExample.host1.eth[0].phyLayer.interFrameGapInserter displayStringTextFormat "\"delayed %p pk (%l)\\nifg: %g\""
par VlanExample.host1.eth[0].phyLayer.interFrameGapInserter clockModule "\"\""
par VlanExample.host1.eth[0].phyLayer.interFrameGapInserter initialChannelBusy false
par VlanExample.host1.eth[0].phyLayer.interFrameGapInserter duration 96s/dropUnit(parent.bitrate)
attr unit s
par VlanExample.host1.eth[0].phyLayer.outboundEmitter typename "\"inet.protocolelement.common.PacketEmitter\""
par VlanExample.host1.eth[0].phyLayer.outboundEmitter displayStringTextFormat "\"processed %p pk (%l)\""
par VlanExample.host1.eth[0].phyLayer.outboundEmitter packetFilter "(omnetpp::cValueHolder)holder: \"*\""
par VlanExample.host1.eth[0].phyLayer.outboundEmitter direction "\"outbound\""
attr enum undefined,inbound,outbound
par VlanExample.host1.eth[0].phyLayer.outboundEmitter signalName "\"packetSentToLower\""
scalar VlanExample.host1.eth[0].phyLayer.outboundEmitter outgoingPackets:count 1
attr recordingmode count
attr source "merge(packetPushedOut, packetPulledOut)"
attr title "outgoing packets, count"
attr unit pk
scalar VlanExample.host1.eth[0].phyLayer.outboundEmitter outgoingPacketLengths:sum 576
attr interpolationmode none
attr recordingmode sum
attr source "packetLength(merge(packetPushedOut, packetPulledOut))"
attr title "outgoing packet lengths, sum"
attr unit b
statistic VlanExample.host1.eth[0].phyLayer.outboundEmitter outgoingPacketLengths:histogram
field count 1
field mean 576
field stddev nan
field min 576
field max 576
field sum 576
field sqrsum 331776
attr interpolationmode none
attr recordingmode histogram
attr source "packetLength(merge(packetPushedOut, packetPulledOut))"
attr title "outgoing packet lengths"
attr unit b
bin	-inf	0
bin	575	0
bin	576	1
bin	577	0
scalar VlanExample.host1.eth[0].phyLayer.outboundEmitter flowOutgoingPacketLengths:sum 0
attr interpolationmode none
attr recordingmode sum
attr source "packetLength(demuxFlow(merge(packetPushedOut, packetPulledOut)))"
attr title "flow specific outgoing packet lengths, sum"
attr unit b
statistic VlanExample.host1.eth[0].phyLayer.outboundEmitter flowOutgoingPacketLengths:histogram
field count 0
field mean -nan
field stddev nan
field min nan
field max nan
field sum 0
field sqrsum 0
attr interpolationmode none
attr recordingmode histogram
attr source "packetLength(demuxFlow(merge(packetPushedOut, packetPulledOut)))"
attr title "flow specific outgoing packet lengths"
attr unit b
bin	-inf	0
bin	0	0
bin	1	0
scalar VlanExample.host1.eth[0].phyLayer.outboundEmitter incomingPackets:count 1
attr recordingmode count
attr source "merge(packetPushedIn, packetPulledIn)"
attr title "incoming packets, count"
attr unit pk
scalar VlanExample.host1.eth[0].phyLayer.outboundEmitter incomingPacketLengths:sum 576
attr interpolationmode none
attr recordingmode sum
attr source "packetLength(merge(packetPushedIn, packetPulledIn))"
attr title "incoming packet lengths, sum"
attr unit b
statistic VlanExample.host1.eth[0].phyLayer.outboundEmitter incomingPacketLengths:histogram
field count 1
field mean 576
field stddev nan
field min 576
field max 576
field sum 576
field sqrsum 331776
attr interpolationmode none
attr recordingmode histogram
attr source "packetLength(merge(packetPushedIn, packetPulledIn))"
attr title "incoming packet lengths"
attr unit b
bin	-inf	0
bin	575	0
bin	576	1
bin	577	0
scalar VlanExample.host1.eth[0].phyLayer.outboundEmitter flowIncomingPacketLengths:sum 0
attr interpolationmode none
attr recordingmode sum
attr source "packetLength(demuxFlow(merge(packetPushedIn, packetPulledIn)))"
attr title "flow specific incoming packet lengths, sum"
attr unit b
statistic VlanExample.host1.eth[0].phyLayer.outboundEmitter flowIncomingPacketLengths:histogram
field count 0
field mean -nan
field stddev nan
field min nan
field max nan
field sum 0
field sqrsum 0
attr interpolationmode none
attr recordingmode histogram
attr source "packetLength(demuxFlow(merge(packetPushedIn, packetPulledIn)))"
attr title "flow specific incoming packet lengths"
attr unit b
bin	-inf	0
bin	0	0
bin	1	0
par VlanExample.host1.eth[0].phyLayer.transmitter typename "\"inet.protocolelement.transceiver.PacketTransmitter\""
par VlanExample.host1.eth[0].phyLayer.transmitter displayStringTextFormat "\"processed %p pk (%l)\""
par VlanExample.host1.eth[0].phyLayer.transmitter clockModule "\"\""
par VlanExample.host1.eth[0].phyLayer.transmitter datarate this.bitrate
attr unit bps
scalar VlanExample.host1.eth[0].phyLayer.transmitter propagationTime 5e-08
statistic VlanExample.host1.eth[0].phyLayer.transmitter utilization:histogram
field count 0
field mean -nan
field stddev nan
field min nan
field max nan
field sum 0
field sqrsum 0
attr interpolationmode linear
attr recordingmode histogram
attr source "100 * utilization(count(transmissionStarted) - count(transmissionEnded))"
attr title utilization
attr unit %
bin	-inf	0
bin	0	0
bin	1	0
statistic VlanExample.host1.eth[0].phyLayer.transmitter transmissionTime:histogram
field count 1
field mean 5.76e-06
field stddev nan
field min 5.76e-06
field max 5.76e-06
field sum 5.76e-06
field sqrsum 3.31776e-11
attr interpolationmode none
attr recordingmode histogram
attr source packetDuration(transmissionEnded)
attr title "transmission time"
attr unit s
bin	-inf	0
bin	0	1
bin	0.01	0
bin	0.02	0
bin	0.03	0
bin	0.04	0
bin	0.05	0
bin	0.06	0
bin	0.07	0
bin	0.08	0
bin	0.09	0
bin	0.1	0
bin	0.11	0
bin	0.12	0
bin	0.13	0
bin	0.14	0
bin	0.15	0
bin	0.16	0
bin	0.17	0
bin	0.18	0
bin	0.19	0
bin	0.2	0
bin	0.21	0
bin	0.22	0
bin	0.23	0
bin	0.24	0
bin	0.25	0
bin	0.26	0
bin	0.27	0
bin	0.28	0
bin	0.29	0
bin	0.3	0
bin	0.31	0
bin	0.32	0
bin	0.33	0
bin	0.34	0
bin	0.35	0
bin	0.36	0
bin	0.37	0
bin	0.38	0
bin	0.39	0
bin	0.4	0
bin	0.41	0
bin	0.42	0
bin	0.43	0
bin	0.44	0
bin	0.45	0
bin	0.46	0
bin	0.47	0
bin	0.48	0
bin	0.49	0
bin	0.5	0
bin	0.51	0
statistic VlanExample.host1.eth[0].phyLayer.transmitter flowTransmissionTime:histogram
field count 0
field mean -nan
field stddev nan
field min nan
field max nan
field sum 0
field sqrsum 0
attr interpolationmode none
attr recordingmode histogram
attr source packetDuration(demuxFlow(transmissionEnded))
attr title "flow transmission time"
attr unit s
bin	-inf	0
bin	0	0
bin	1	0
par VlanExample.host1.eth[0].phyLayer.phyHeaderChecker typename "\"inet.physicallayer.wired.ethernet.EthernetPhyHeaderChecker\""
par VlanExample.host1.eth[0].phyLayer.phyHeaderChecker displayStringTextFormat "\"dropped %d/%p pk (%k/%l)\""
par VlanExample.host1.eth[0].phyLayer.phyHeaderChecker backpressure false
scalar VlanExample.host1.eth[0].phyLayer.phyHeaderChecker outgoingPackets:count 0
attr recordingmode count
attr source "merge(packetPushedOut, packetPulledOut)"
attr title "outgoing packets, count"
attr unit pk
scalar VlanExample.host1.eth[0].phyLayer.phyHeaderChecker outgoingPacketLengths:sum 0
attr interpolationmode none
attr recordingmode sum
attr source "packetLength(merge(packetPushedOut, packetPulledOut))"
attr title "outgoing packet lengths, sum"
attr unit b
statistic VlanExample.host1.eth[0].phyLayer.phyHeaderChecker outgoingPacketLengths:histogram
field count 0
field mean -nan
field stddev nan
field min nan
field max nan
field sum 0
field sqrsum 0
attr interpolationmode none
attr recordingmode histogram
attr source "packetLength(merge(packetPushedOut, packetPulledOut))"
attr title "outgoing packet lengths"
attr unit b
bin	-inf	0
bin	0	0
bin	1	0
scalar VlanExample.host1.eth[0].phyLayer.phyHeaderChecker flowOutgoingPacketLengths:sum 0
attr interpolationmode none
attr recordingmode sum
attr source "packetLength(demuxFlow(merge(packetPushedOut, packetPulledOut)))"
attr title "flow specific outgoing packet lengths, sum"
attr unit b
statistic VlanExample.host1.eth[0].phyLayer.phyHeaderChecker flowOutgoingPacketLengths:histogram
field count 0
field mean -nan
field stddev nan
field min nan
field max nan
field sum 0
field sqrsum 0
attr interpolationmode none
attr recordingmode histogram
attr source "packetLength(demuxFlow(merge(packetPushedOut, packetPulledOut)))"
attr title "flow specific outgoing packet lengths"
attr unit b
bin	-inf	0
bin	0	0
bin	1	0
scalar VlanExample.host1.eth[0].phyLayer.phyHeaderChecker incomingPackets:count 0
attr recordingmode count
attr source "merge(packetPushedIn, packetPulledIn)"
attr title "incoming packets, count"
attr unit pk
scalar VlanExample.host1.eth[0].phyLayer.phyHeaderChecker incomingPacketLengths:sum 0
attr interpolationmode none
attr recordingmode sum
attr source "packetLength(merge(packetPushedIn, packetPulledIn))"
attr title "incoming packet lengths, sum"
attr unit b
statistic VlanExample.host1.eth[0].phyLayer.phyHeaderChecker incomingPacketLengths:histogram
field count 0
field mean -nan
field stddev nan
field min nan
field max nan
field sum 0
field sqrsum 0
attr interpolationmode none
attr recordingmode histogram
attr source "packetLength(merge(packetPushedIn, packetPulledIn))"
attr title "incoming packet lengths"
attr unit b
bin	-inf	0
bin	0	0
bin	1	0
scalar VlanExample.host1.eth[0].phyLayer.phyHeaderChecker flowIncomingPacketLengths:sum 0
attr interpolationmode none
attr recordingmode sum
attr source "packetLength(demuxFlow(merge(packetPushedIn, packetPulledIn)))"
attr title "flow specific incoming packet lengths, sum"
attr unit b
statistic VlanExample.host1.eth[0].phyLayer.phyHeaderChecker flowIncomingPacketLengths:histogram
field count 0
field mean -nan
field stddev nan
field min nan
field max nan
field sum 0
field sqrsum 0
attr interpolationmode none
attr recordingmode histogram
attr source "packetLength(demuxFlow(merge(packetPushedIn, packetPulledIn)))"
attr title "flow specific incoming packet lengths"
attr unit b
bin	-inf	0
bin	0	0
bin	1	0
scalar VlanExample.host1.eth[0].phyLayer.phyHeaderChecker droppedPackets:count 0
attr recordingmode count
attr source packetDropped
attr title "dropped packets, count"
attr unit pk
scalar VlanExample.host1.eth[0].phyLayer.phyHeaderChecker droppedPacketLengths:sum 0
attr interpolationmode none
attr recordingmode sum
attr source packetLength(packetDropped)
attr title "dropped packet lengths, sum"
attr unit b
statistic VlanExample.host1.eth[0].phyLayer.phyHeaderChecker droppedPacketLengths:histogram
field count 0
field mean -nan
field stddev nan
field min nan
field max nan
field sum 0
field sqrsum 0
attr interpolationmode none
attr recordingmode histogram
attr source packetLength(packetDropped)
attr title "dropped packet lengths"
attr unit b
bin	-inf	0
bin	0	0
bin	1	0
scalar VlanExample.host1.eth[0].phyLayer.phyHeaderChecker flowDroppedPacketLengths:sum 0
attr interpolationmode none
attr recordingmode sum
attr source packetLength(demuxFlow(packetDropped))
attr title "flow specific dropped packet lengths, sum"
attr unit b
statistic VlanExample.host1.eth[0].phyLayer.phyHeaderChecker flowDroppedPacketLengths:histogram
field count 0
field mean -nan
field stddev nan
field min nan
field max nan
field sum 0
field sqrsum 0
attr interpolationmode none
attr recordingmode histogram
attr source packetLength(demuxFlow(packetDropped))
attr title "flow specific dropped packet lengths"
attr unit b
bin	-inf	0
bin	0	0
bin	1	0
par VlanExample.host1.eth[0].phyLayer.inboundEmitter typename "\"inet.protocolelement.common.PacketEmitter\""
par VlanExample.host1.eth[0].phyLayer.inboundEmitter displayStringTextFormat "\"processed %p pk (%l)\""
par VlanExample.host1.eth[0].phyLayer.inboundEmitter packetFilter "(omnetpp::cValueHolder)holder: \"*\""
par VlanExample.host1.eth[0].phyLayer.inboundEmitter direction "\"inbound\""
attr enum undefined,inbound,outbound
par VlanExample.host1.eth[0].phyLayer.inboundEmitter signalName "\"packetReceivedFromLower\""
scalar VlanExample.host1.eth[0].phyLayer.inboundEmitter outgoingPackets:count 0
attr recordingmode count
attr source "merge(packetPushedOut, packetPulledOut)"
attr title "outgoing packets, count"
attr unit pk
scalar VlanExample.host1.eth[0].phyLayer.inboundEmitter outgoingPacketLengths:sum 0
attr interpolationmode none
attr recordingmode sum
attr source "packetLength(merge(packetPushedOut, packetPulledOut))"
attr title "outgoing packet lengths, sum"
attr unit b
statistic VlanExample.host1.eth[0].phyLayer.inboundEmitter outgoingPacketLengths:histogram
field count 0
field mean -nan
field stddev nan
field min nan
field max nan
field sum 0
field sqrsum 0
attr interpolationmode none
attr recordingmode histogram
attr source "packetLength(merge(packetPushedOut, packetPulledOut))"
attr title "outgoing packet lengths"
attr unit b
bin	-inf	0
bin	0	0
bin	1	0
scalar VlanExample.host1.eth[0].phyLayer.inboundEmitter flowOutgoingPacketLengths:sum 0
attr interpolationmode none
attr recordingmode sum
attr source "packetLength(demuxFlow(merge(packetPushedOut, packetPulledOut)))"
attr title "flow specific outgoing packet lengths, sum"
attr unit b
statistic VlanExample.host1.eth[0].phyLayer.inboundEmitter flowOutgoingPacketLengths:histogram
field count 0
field mean -nan
field stddev nan
field min nan
field max nan
field sum 0
field sqrsum 0
attr interpolationmode none
attr recordingmode histogram
attr source "packetLength(demuxFlow(merge(packetPushedOut, packetPulledOut)))"
attr title "flow specific outgoing packet lengths"
attr unit b
bin	-inf	0
bin	0	0
bin	1	0
scalar VlanExample.host1.eth[0].phyLayer.inboundEmitter incomingPackets:count 0
attr recordingmode count
attr source "merge(packetPushedIn, packetPulledIn)"
attr title "incoming packets, count"
attr unit pk
scalar VlanExample.host1.eth[0].phyLayer.inboundEmitter incomingPacketLengths:sum 0
attr interpolationmode none
attr recordingmode sum
attr source "packetLength(merge(packetPushedIn, packetPulledIn))"
attr title "incoming packet lengths, sum"
attr unit b
statistic VlanExample.host1.eth[0].phyLayer.inboundEmitter incomingPacketLengths:histogram
field count 0
field mean -nan
field stddev nan
field min nan
field max nan
field sum 0
field sqrsum 0
attr interpolationmode none
attr recordingmode histogram
attr source "packetLength(merge(packetPushedIn, packetPulledIn))"
attr title "incoming packet lengths"
attr unit b
bin	-inf	0
bin	0	0
bin	1	0
scalar VlanExample.host1.eth[0].phyLayer.inboundEmitter flowIncomingPacketLengths:sum 0
attr interpolationmode none
attr recordingmode sum
attr source "packetLength(demuxFlow(merge(packetPushedIn, packetPulledIn)))"
attr title "flow specific incoming packet lengths, sum"
attr unit b
statistic VlanExample.host1.eth[0].phyLayer.inboundEmitter flowIncomingPacketLengths:histogram
field count 0
field mean -nan
field stddev nan
field min nan
field max nan
field sum 0
field sqrsum 0
attr interpolationmode none
attr recordingmode histogram
attr source "packetLength(demuxFlow(merge(packetPushedIn, packetPulledIn)))"
attr title "flow specific incoming packet lengths"
attr unit b
bin	-inf	0
bin	0	0
bin	1	0
par VlanExample.host1.eth[0].phyLayer.receiver typename "\"inet.protocolelement.transceiver.PacketReceiver\""
par VlanExample.host1.eth[0].phyLayer.receiver displayStringTextFormat "\"processed %p pk (%l)\""
par VlanExample.host1.eth[0].phyLayer.receiver datarate 1e+08bps
attr unit bps
statistic VlanExample.host1.eth[0].phyLayer.receiver receptionTime:histogram
field count 0
field mean -nan
field stddev nan
field min nan
field max nan
field sum 0
field sqrsum 0
attr interpolationmode none
attr recordingmode histogram
attr source packetDuration(receptionEnded)
attr title "reception time"
attr unit s
bin	-inf	0
bin	0	0
bin	1	0
statistic VlanExample.host1.eth[0].phyLayer.receiver flowReceptionTime:histogram
field count 0
field mean -nan
field stddev nan
field min nan
field max nan
field sum 0
field sqrsum 0
attr interpolationmode none
attr recordingmode histogram
attr source packetDuration(demuxFlow(receptionEnded))
attr title "flow reception time"
attr unit s
bin	-inf	0
bin	0	0
bin	1	0
par VlanExample.host1.eth[0].phyLayer typename "\"inet.physicallayer.wired.ethernet.EthernetPhyLayer\""
par VlanExample.host1.eth[0].phyLayer bitrate this.bitrate
attr unit bps
par VlanExample.host1.eth[0] typename "\"inet.linklayer.ethernet.LayeredEthernetInterface\""
par VlanExample.host1.eth[0] displayStringTextFormat "\"%a (%i)\\n%m\""
par VlanExample.host1.eth[0] recordPcap false
par VlanExample.host1.eth[0] numPcapRecorders 0
par VlanExample.host1.eth[0] protocol "\"ethernetmac\""
par VlanExample.host1.eth[0] broadcast true
par VlanExample.host1.eth[0] multicast true
par VlanExample.host1.eth[0] address "\"0A-AA-00-00-00-01\""
attr mutable ""
par VlanExample.host1.eth[0] bitrate 1e+08bps
attr unit bps
par VlanExample.host1.eth[0] mtu 1500B
attr unit B
par VlanExample.host1.eth[0] interfaceTableModule "\"VlanExample.host1.interfaceTable\""
scalar VlanExample.host1.eth[0] packetDropInterfaceDown:count 0
attr interpolationmode none
attr recordingmode count
attr source packetDropReasonIsInterfaceDown(packetDropped)
attr title "packet drops: interface down, count"
scalar VlanExample.host1.eth[0] packetDropInterfaceDown:sum(packetBytes) 0
attr interpolationmode none
attr recordingmode sum(packetBytes)
attr source packetDropReasonIsInterfaceDown(packetDropped)
attr title "packet drops: interface down, sum(packetBytes)"
scalar VlanExample.host1.eth[0] packetDropNoCarrier:count 0
attr interpolationmode none
attr recordingmode count
attr source packetDropReasonIsNoCarrier(packetDropped)
attr title "packet drops: no carrier, count"
scalar VlanExample.host1.eth[0] packetDropNoCarrier:sum(packetBytes) 0
attr interpolationmode none
attr recordingmode sum(packetBytes)
attr source packetDropReasonIsNoCarrier(packetDropped)
attr title "packet drops: no carrier, sum(packetBytes)"
par VlanExample.host1.ipv4.transportIn.channel typename "\"ned.IdealChannel\""
par VlanExample.host1.ipv4.up.out[0].channel typename "\"ned.IdealChannel\""
par VlanExample.host1.ipv4.lp.out[2].channel typename "\"ned.IdealChannel\""
par VlanExample.host1.ipv4.ifIn.channel typename "\"ned.IdealChannel\""
par VlanExample.host1.ipv4.configurator typename "\"inet.networklayer.configurator.ipv4.Ipv4NodeConfigurator\""
par VlanExample.host1.ipv4.configurator interfaceTableModule "\"VlanExample.host1.interfaceTable\""
par VlanExample.host1.ipv4.configurator routingTableModule "\"VlanExample.host1.ipv4.routingTable\""
par VlanExample.host1.ipv4.configurator networkConfiguratorModule "\"configurator\""
par VlanExample.host1.ipv4.configurator configureRoutingTable true
par VlanExample.host1.ipv4.routingTable typename "\"inet.networklayer.ipv4.Ipv4RoutingTable\""
par VlanExample.host1.ipv4.routingTable interfaceTableModule "\"VlanExample.host1.interfaceTable\""
par VlanExample.host1.ipv4.routingTable routerId "\"auto\""
par VlanExample.host1.ipv4.routingTable netmaskRoutes "\"*\""
par VlanExample.host1.ipv4.routingTable forwarding false
par VlanExample.host1.ipv4.routingTable multicastForwarding false
par VlanExample.host1.ipv4.routingTable useAdminDist false
par VlanExample.host1.ipv4.routingTable routingFile "\"\""
par VlanExample.host1.ipv4.natTable typename "\"inet.networklayer.ipv4.Ipv4NatTable\""
par VlanExample.host1.ipv4.natTable networkProtocolModule "\"^.ip\""
par VlanExample.host1.ipv4.natTable config "<config/> at content:1"
par VlanExample.host1.ipv4.up typename "\"inet.common.MessageDispatcher\""
par VlanExample.host1.ipv4.up displayStringTextFormat "\"processed %p pk (%l)\""
par VlanExample.host1.ipv4.up forwardServiceRegistration true
par VlanExample.host1.ipv4.up forwardProtocolRegistration true
par VlanExample.host1.ipv4.igmp typename "\"inet.networklayer.ipv4.Igmpv2\""
par VlanExample.host1.ipv4.igmp interfaceTableModule "\"VlanExample.host1.interfaceTable\""
par VlanExample.host1.ipv4.igmp routingTableModule "\"VlanExample.host1.ipv4.routingTable\""
par VlanExample.host1.ipv4.igmp crcMode "\"computed\""
attr enum declared,computed
par VlanExample.host1.ipv4.igmp enabled true
par VlanExample.host1.ipv4.igmp robustnessVariable 2
par VlanExample.host1.ipv4.igmp queryInterval 125s
attr unit s
par VlanExample.host1.ipv4.igmp queryResponseInterval 10s
attr unit s
par VlanExample.host1.ipv4.igmp groupMembershipInterval 260s
attr unit s
par VlanExample.host1.ipv4.igmp otherQuerierPresentInterval 255s
attr unit s
par VlanExample.host1.ipv4.igmp startupQueryInterval 31.25s
attr unit s
par VlanExample.host1.ipv4.igmp startupQueryCount 2
par VlanExample.host1.ipv4.igmp lastMemberQueryInterval 1s
attr unit s
par VlanExample.host1.ipv4.igmp lastMemberQueryCount 2
par VlanExample.host1.ipv4.igmp unsolicitedReportInterval 10s
attr unit s
par VlanExample.host1.ipv4.icmp typename "\"inet.networklayer.ipv4.Icmp\""
par VlanExample.host1.ipv4.icmp interfaceTableModule "\"VlanExample.host1.interfaceTable\""
par VlanExample.host1.ipv4.icmp routingTableModule "\"VlanExample.host1.ipv4.routingTable\""
par VlanExample.host1.ipv4.icmp crcMode "\"computed\""
attr enum declared,computed
attr mutable ""
par VlanExample.host1.ipv4.icmp quoteLength 8B
attr mutable ""
attr unit B
par VlanExample.host1.ipv4.mp typename "\"inet.common.MessageDispatcher\""
par VlanExample.host1.ipv4.mp displayStringTextFormat "\"processed %p pk (%l)\""
par VlanExample.host1.ipv4.mp forwardServiceRegistration true
par VlanExample.host1.ipv4.mp forwardProtocolRegistration true
par VlanExample.host1.ipv4.ip typename "\"inet.networklayer.ipv4.Ipv4\""
par VlanExample.host1.ipv4.ip interfaceTableModule "\"VlanExample.host1.interfaceTable\""
par VlanExample.host1.ipv4.ip routingTableModule "\"VlanExample.host1.ipv4.routingTable\""
par VlanExample.host1.ipv4.ip arpModule "\"VlanExample.host1.ipv4.arp\""
par VlanExample.host1.ipv4.ip icmpModule "\"VlanExample.host1.ipv4.icmp\""
par VlanExample.host1.ipv4.ip crcMode "\"computed\""
attr enum declared,computed
par VlanExample.host1.ipv4.ip timeToLive 32
par VlanExample.host1.ipv4.ip multicastTimeToLive 32
par VlanExample.host1.ipv4.ip fragmentTimeout 60s
attr unit s
par VlanExample.host1.ipv4.ip limitedBroadcast false
par VlanExample.host1.ipv4.ip directBroadcastInterfaces "\"\""
scalar VlanExample.host1.ipv4.ip packetDropAddressResolutionFailed:count 0
attr interpolationmode none
attr recordingmode count
attr source packetDropReasonIsAddressResolutionFailed(packetDropped)
attr title "packet drop: address resolution failed, count"
scalar VlanExample.host1.ipv4.ip packetDropAddressResolutionFailed:sum(packetBytes) 0
attr interpolationmode none
attr recordingmode sum(packetBytes)
attr source packetDropReasonIsAddressResolutionFailed(packetDropped)
attr title "packet drop: address resolution failed, sum(packetBytes)"
scalar VlanExample.host1.ipv4.ip packetDropHopLimitReached:count 0
attr interpolationmode none
attr recordingmode count
attr source packetDropReasonIsHopLimitReached(packetDropped)
attr title "packet drop: hop limit reached, count"
scalar VlanExample.host1.ipv4.ip packetDropHopLimitReached:sum(packetBytes) 0
attr interpolationmode none
attr recordingmode sum(packetBytes)
attr source packetDropReasonIsHopLimitReached(packetDropped)
attr title "packet drop: hop limit reached, sum(packetBytes)"
scalar VlanExample.host1.ipv4.ip packetDropForwardingDisabled:count 0
attr interpolationmode none
attr recordingmode count
attr source packetDropReasonIsForwardingDisabled(packetDropped)
attr title "packet drop: forwarding disabled, count"
scalar VlanExample.host1.ipv4.ip packetDropForwardingDisabled:sum(packetBytes) 0
attr interpolationmode none
attr recordingmode sum(packetBytes)
attr source packetDropReasonIsForwardingDisabled(packetDropped)
attr title "packet drop: forwarding disabled, sum(packetBytes)"
scalar VlanExample.host1.ipv4.ip packetDropNoInterfaceFound:count 0
attr interpolationmode none
attr recordingmode count
attr source packetDropReasonIsNoInterfaceFound(packetDropped)
attr title "packet drop: no interface found, count"
scalar VlanExample.host1.ipv4.ip packetDropNoInterfaceFound:sum(packetBytes) 0
attr interpolationmode none
attr recordingmode sum(packetBytes)
attr source packetDropReasonIsNoInterfaceFound(packetDropped)
attr title "packet drop: no interface found, sum(packetBytes)"
scalar VlanExample.host1.ipv4.ip packetDropNoRouteFound:count 0
attr interpolationmode none
attr recordingmode count
[...]
attr interpolationmode none
attr recordingmode sum
attr source "packetLength(demuxFlow(merge(packetPushedIn, packetPulledIn)))"
attr title "flow specific incoming packet lengths, sum"
attr unit b
statistic VlanExample.host2.eth[0].phyLayer.inboundEmitter flowIncomingPacketLengths:histogram
field count 0
field mean -nan
field stddev nan
field min nan
field max nan
field sum 0
field sqrsum 0
attr interpolationmode none
attr recordingmode histogram
attr source "packetLength(demuxFlow(merge(packetPushedIn, packetPulledIn)))"
attr title "flow specific incoming packet lengths"
attr unit b
bin	-inf	0
bin	0	0
bin	1	0
par VlanExample.host2.eth[0].phyLayer.receiver typename "\"inet.protocolelement.transceiver.PacketReceiver\""
par VlanExample.host2.eth[0].phyLayer.receiver displayStringTextFormat "\"processed %p pk (%l)\""
par VlanExample.host2.eth[0].phyLayer.receiver datarate 1e+08bps
attr unit bps
statistic VlanExample.host2.eth[0].phyLayer.receiver receptionTime:histogram
field count 0
field mean -nan
field stddev nan
field min nan
field max nan
field sum 0
field sqrsum 0
attr interpolationmode none
attr recordingmode histogram
attr source packetDuration(receptionEnded)
attr title "reception time"
attr unit s
bin	-inf	0
bin	0	0
bin	1	0
statistic VlanExample.host2.eth[0].phyLayer.receiver flowReceptionTime:histogram
field count 0
field mean -nan
field stddev nan
field min nan
field max nan
field sum 0
field sqrsum 0
attr interpolationmode none
attr recordingmode histogram
attr source packetDuration(demuxFlow(receptionEnded))
attr title "flow reception time"
attr unit s
bin	-inf	0
bin	0	0
bin	1	0
par VlanExample.host2.eth[0].phyLayer typename "\"inet.physicallayer.wired.ethernet.EthernetPhyLayer\""
par VlanExample.host2.eth[0].phyLayer bitrate this.bitrate
attr unit bps
par VlanExample.host2.eth[0] typename "\"inet.linklayer.ethernet.LayeredEthernetInterface\""
par VlanExample.host2.eth[0] displayStringTextFormat "\"%a (%i)\\n%m\""
par VlanExample.host2.eth[0] recordPcap false
par VlanExample.host2.eth[0] numPcapRecorders 0
par VlanExample.host2.eth[0] protocol "\"ethernetmac\""
par VlanExample.host2.eth[0] broadcast true
par VlanExample.host2.eth[0] multicast true
par VlanExample.host2.eth[0] address "\"0A-AA-00-00-00-06\""
attr mutable ""
par VlanExample.host2.eth[0] bitrate 1e+08bps
attr unit bps
par VlanExample.host2.eth[0] mtu 1500B
attr unit B
par VlanExample.host2.eth[0] interfaceTableModule "\"VlanExample.host2.interfaceTable\""
scalar VlanExample.host2.eth[0] packetDropInterfaceDown:count 0
attr interpolationmode none
attr recordingmode count
attr source packetDropReasonIsInterfaceDown(packetDropped)
attr title "packet drops: interface down, count"
scalar VlanExample.host2.eth[0] packetDropInterfaceDown:sum(packetBytes) 0
attr interpolationmode none
attr recordingmode sum(packetBytes)
attr source packetDropReasonIsInterfaceDown(packetDropped)
attr title "packet drops: interface down, sum(packetBytes)"
scalar VlanExample.host2.eth[0] packetDropNoCarrier:count 0
attr interpolationmode none
attr recordingmode count
attr source packetDropReasonIsNoCarrier(packetDropped)
attr title "packet drops: no carrier, count"
scalar VlanExample.host2.eth[0] packetDropNoCarrier:sum(packetBytes) 0
attr interpolationmode none
attr recordingmode sum(packetBytes)
attr source packetDropReasonIsNoCarrier(packetDropped)
attr title "packet drops: no carrier, sum(packetBytes)"
par VlanExample.host2.ipv4.transportIn.channel typename "\"ned.IdealChannel\""
par VlanExample.host2.ipv4.up.out[0].channel typename "\"ned.IdealChannel\""
par VlanExample.host2.ipv4.lp.out[2].channel typename "\"ned.IdealChannel\""
par VlanExample.host2.ipv4.ifIn.channel typename "\"ned.IdealChannel\""
par VlanExample.host2.ipv4.configurator typename "\"inet.networklayer.configurator.ipv4.Ipv4NodeConfigurator\""
par VlanExample.host2.ipv4.configurator interfaceTableModule "\"VlanExample.host2.interfaceTable\""
par VlanExample.host2.ipv4.configurator routingTableModule "\"VlanExample.host2.ipv4.routingTable\""
par VlanExample.host2.ipv4.configurator networkConfiguratorModule "\"configurator\""
par VlanExample.host2.ipv4.configurator configureRoutingTable true
par VlanExample.host2.ipv4.routingTable typename "\"inet.networklayer.ipv4.Ipv4RoutingTable\""
par VlanExample.host2.ipv4.routingTable interfaceTableModule "\"VlanExample.host2.interfaceTable\""
par VlanExample.host2.ipv4.routingTable routerId "\"auto\""
par VlanExample.host2.ipv4.routingTable netmaskRoutes "\"*\""
par VlanExample.host2.ipv4.routingTable forwarding false
par VlanExample.host2.ipv4.routingTable multicastForwarding false
par VlanExample.host2.ipv4.routingTable useAdminDist false
par VlanExample.host2.ipv4.routingTable routingFile "\"\""
par VlanExample.host2.ipv4.natTable typename "\"inet.networklayer.ipv4.Ipv4NatTable\""
par VlanExample.host2.ipv4.natTable networkProtocolModule "\"^.ip\""
par VlanExample.host2.ipv4.natTable config "<config/> at content:1"
par VlanExample.host2.ipv4.up typename "\"inet.common.MessageDispatcher\""
par VlanExample.host2.ipv4.up displayStringTextFormat "\"processed %p pk (%l)\""
par VlanExample.host2.ipv4.up forwardServiceRegistration true
par VlanExample.host2.ipv4.up forwardProtocolRegistration true
par VlanExample.host2.ipv4.igmp typename "\"inet.networklayer.ipv4.Igmpv2\""
par VlanExample.host2.ipv4.igmp interfaceTableModule "\"VlanExample.host2.interfaceTable\""
par VlanExample.host2.ipv4.igmp routingTableModule "\"VlanExample.host2.ipv4.routingTable\""
par VlanExample.host2.ipv4.igmp crcMode "\"computed\""
attr enum declared,computed
par VlanExample.host2.ipv4.igmp enabled true
par VlanExample.host2.ipv4.igmp robustnessVariable 2
par VlanExample.host2.ipv4.igmp queryInterval 125s
attr unit s
par VlanExample.host2.ipv4.igmp queryResponseInterval 10s
attr unit s
par VlanExample.host2.ipv4.igmp groupMembershipInterval 260s
attr unit s
par VlanExample.host2.ipv4.igmp otherQuerierPresentInterval 255s
attr unit s
par VlanExample.host2.ipv4.igmp startupQueryInterval 31.25s
attr unit s
par VlanExample.host2.ipv4.igmp startupQueryCount 2
par VlanExample.host2.ipv4.igmp lastMemberQueryInterval 1s
attr unit s
par VlanExample.host2.ipv4.igmp lastMemberQueryCount 2
par VlanExample.host2.ipv4.igmp unsolicitedReportInterval 10s
attr unit s
par VlanExample.host2.ipv4.icmp typename "\"inet.networklayer.ipv4.Icmp\""
par VlanExample.host2.ipv4.icmp interfaceTableModule "\"VlanExample.host2.interfaceTable\""
par VlanExample.host2.ipv4.icmp routingTableModule "\"VlanExample.host2.ipv4.routingTable\""
par VlanExample.host2.ipv4.icmp crcMode "\"computed\""
attr enum declared,computed
attr mutable ""
par VlanExample.host2.ipv4.icmp quoteLength 8B
attr mutable ""
attr unit B
par VlanExample.host2.ipv4.mp typename "\"inet.common.MessageDispatcher\""
par VlanExample.host2.ipv4.mp displayStringTextFormat "\"processed %p pk (%l)\""
par VlanExample.host2.ipv4.mp forwardServiceRegistration true
par VlanExample.host2.ipv4.mp forwardProtocolRegistration true
par VlanExample.host2.ipv4.ip typename "\"inet.networklayer.ipv4.Ipv4\""
par VlanExample.host2.ipv4.ip interfaceTableModule "\"VlanExample.host2.interfaceTable\""
par VlanExample.host2.ipv4.ip routingTableModule "\"VlanExample.host2.ipv4.routingTable\""
par VlanExample.host2.ipv4.ip arpModule "\"VlanExample.host2.ipv4.arp\""
par VlanExample.host2.ipv4.ip icmpModule "\"VlanExample.host2.ipv4.icmp\""
par VlanExample.host2.ipv4.ip crcMode "\"computed\""
attr enum declared,computed
par VlanExample.host2.ipv4.ip timeToLive 32
par VlanExample.host2.ipv4.ip multicastTimeToLive 32
par VlanExample.host2.ipv4.ip fragmentTimeout 60s
attr unit s
par VlanExample.host2.ipv4.ip limitedBroadcast false
par VlanExample.host2.ipv4.ip directBroadcastInterfaces "\"\""
scalar VlanExample.host2.ipv4.ip packetDropAddressResolutionFailed:count 0
attr interpolationmode none
attr recordingmode count
attr source packetDropReasonIsAddressResolutionFailed(packetDropped)
attr title "packet drop: address resolution failed, count"
scalar VlanExample.host2.ipv4.ip packetDropAddressResolutionFailed:sum(packetBytes) 0
attr interpolationmode none
attr recordingmode sum(packetBytes)
attr source packetDropReasonIsAddressResolutionFailed(packetDropped)
attr title "packet drop: address resolution failed, sum(packetBytes)"
scalar VlanExample.host2.ipv4.ip packetDropHopLimitReached:count 0
attr interpolationmode none
attr recordingmode count
attr source packetDropReasonIsHopLimitReached(packetDropped)
attr title "packet drop: hop limit reached, count"
scalar VlanExample.host2.ipv4.ip packetDropHopLimitReached:sum(packetBytes) 0
attr interpolationmode none
attr recordingmode sum(packetBytes)
attr source packetDropReasonIsHopLimitReached(packetDropped)
attr title "packet drop: hop limit reached, sum(packetBytes)"
scalar VlanExample.host2.ipv4.ip packetDropForwardingDisabled:count 0
attr interpolationmode none
attr recordingmode count
attr source packetDropReasonIsForwardingDisabled(packetDropped)
attr title "packet drop: forwarding disabled, count"
scalar VlanExample.host2.ipv4.ip packetDropForwardingDisabled:sum(packetBytes) 0
attr interpolationmode none
attr recordingmode sum(packetBytes)
attr source packetDropReasonIsForwardingDisabled(packetDropped)
attr title "packet drop: forwarding disabled, sum(packetBytes)"
scalar VlanExample.host2.ipv4.ip packetDropNoInterfaceFound:count 0
attr interpolationmode none
attr recordingmode count
attr source packetDropReasonIsNoInterfaceFound(packetDropped)
attr title "packet drop: no interface found, count"
scalar VlanExample.host2.ipv4.ip packetDropNoInterfaceFound:sum(packetBytes) 0
attr interpolationmode none
attr recordingmode sum(packetBytes)
attr source packetDropReasonIsNoInterfaceFound(packetDropped)
attr title "packet drop: no interface found, sum(packetBytes)"
scalar VlanExample.host2.ipv4.ip packetDropNoRouteFound:count 0
attr interpolationmode none
attr recordingmode count
attr source packetDropReasonIsNoRouteFound(packetDropped)
attr title "packet drop: no route found, count"
scalar VlanExample.host2.ipv4.ip packetDropNoRouteFound:sum(packetBytes) 0
attr interpolationmode none
attr recordingmode sum(packetBytes)
attr source packetDropReasonIsNoRouteFound(packetDropped)
attr title "packet drop: no route found, sum(packetBytes)"
scalar VlanExample.host2.ipv4.ip packetDropUndefined:count 0
attr interpolationmode none
attr recordingmode count
attr source packetDropReasonIsUndefined(packetDropped)
attr title "packet drop: undefined, count"
scalar VlanExample.host2.ipv4.ip packetDropUndefined:sum(packetBytes) 0
attr interpolationmode none
attr recordingmode sum(packetBytes)
attr source packetDropReasonIsUndefined(packetDropped)
attr title "packet drop: undefined, sum(packetBytes)"
par VlanExample.host2.ipv4.arp typename "\"inet.networklayer.arp.ipv4.Arp\""
par VlanExample.host2.ipv4.arp interfaceTableModule "\"VlanExample.host2.interfaceTable\""
par VlanExample.host2.ipv4.arp routingTableModule "\"VlanExample.host2.ipv4.routingTable\""
par VlanExample.host2.ipv4.arp retryTimeout 1s
attr unit s
par VlanExample.host2.ipv4.arp retryCount 3
par VlanExample.host2.ipv4.arp cacheTimeout 120s
attr unit s
par VlanExample.host2.ipv4.arp proxyArpInterfaces "\"\""
scalar VlanExample.host2.ipv4.arp arpResolutionFailed:count 0
attr recordingmode count
attr title "ARP failed resolutions, count"
scalar VlanExample.host2.ipv4.arp arpResolutionCompleted:count 0
attr recordingmode count
attr title "ARP completed resolutions, count"
scalar VlanExample.host2.ipv4.arp arpResolutionInitiated:count 0
attr recordingmode count
attr title "ARP initiated resolutions, count"
scalar VlanExample.host2.ipv4.arp arpReplySent:count 0
attr recordingmode count
attr source arpReplySent
attr title "ARP replies sent, count"
scalar VlanExample.host2.ipv4.arp arpReplySent:sum(packetBytes) 0
attr recordingmode sum(packetBytes)
attr source arpReplySent
attr title "ARP replies sent, sum(packetBytes)"
scalar VlanExample.host2.ipv4.arp arpRequestSent:count 0
attr recordingmode count
attr source arpRequestSent
attr title "ARP request sent, count"
scalar VlanExample.host2.ipv4.arp arpRequestSent:sum(packetBytes) 0
attr recordingmode sum(packetBytes)
attr source arpRequestSent
attr title "ARP request sent, sum(packetBytes)"
par VlanExample.host2.ipv4.lp typename "\"inet.common.MessageDispatcher\""
par VlanExample.host2.ipv4.lp displayStringTextFormat "\"processed %p pk (%l)\""
par VlanExample.host2.ipv4.lp forwardServiceRegistration true
par VlanExample.host2.ipv4.lp forwardProtocolRegistration true
par VlanExample.host2.ipv4 typename "\"inet.networklayer.ipv4.Ipv4NetworkLayer\""
par VlanExample.host2.ipv4 forwarding false
par VlanExample.host2.ipv4 multicastForwarding false
par VlanExample.host2.ipv4 interfaceTableModule "\"VlanExample.host2.interfaceTable\""
par VlanExample.host2.ipv4 displayStringTextFormat "\"%i\""
par VlanExample.host2.nl typename "\"inet.common.MessageDispatcher\""
par VlanExample.host2.nl displayStringTextFormat "\"processed %p pk (%l)\""
par VlanExample.host2.nl forwardServiceRegistration true
par VlanExample.host2.nl forwardProtocolRegistration true
par VlanExample.host2.udp.crcInsertion typename "\"inet.transportlayer.udp.UdpCrcInsertionHook\""
par VlanExample.host2.udp typename "\"inet.transportlayer.udp.Udp\""
par VlanExample.host2.udp interfaceTableModule "\"VlanExample.host2.interfaceTable\""
par VlanExample.host2.udp icmpModule "\"^.ipv4.icmp\""
par VlanExample.host2.udp icmpv6Module "\"^.ipv6.icmpv6\""
par VlanExample.host2.udp crcMode "\"computed\""
attr enum disabled,declared,computed
par VlanExample.host2.udp defaultMulticastLoop true
scalar VlanExample.host2.udp packetReceived:count 0
attr interpolationmode none
attr recordingmode count
attr source packetReceived
attr title "packets received, count"
scalar VlanExample.host2.udp packetReceived:sum(packetBytes) 0
attr interpolationmode none
attr recordingmode sum(packetBytes)
attr source packetReceived
attr title "packets received, sum(packetBytes)"
scalar VlanExample.host2.udp packetSent:count 0
attr interpolationmode none
attr recordingmode count
attr source packetSent
attr title "packets sent, count"
scalar VlanExample.host2.udp packetSent:sum(packetBytes) 0
attr interpolationmode none
attr recordingmode sum(packetBytes)
attr source packetSent
attr title "packets sent, sum(packetBytes)"
scalar VlanExample.host2.udp passedUpPk:count 0
attr interpolationmode none
attr recordingmode count
attr source packetSentToUpper
attr title "packets passed up, count"
scalar VlanExample.host2.udp droppedPkWrongPort:count 0
attr interpolationmode none
attr recordingmode count
attr source packetDropReasonIsNoPortFound(packetDropped)
attr title "packets dropped (wrong port), count"
scalar VlanExample.host2.udp droppedPkBadChecksum:count 0
attr interpolationmode none
attr recordingmode count
attr source packetDropReasonIsIncorrectlyReceived(packetDropped)
attr title "packets dropped (checksum error), count"
par VlanExample.host2.tcp.crcInsertion typename "\"inet.transportlayer.tcp_common.TcpCrcInsertionHook\""
par VlanExample.host2.tcp.conn-1 typename "\"inet.transportlayer.tcp.TcpConnection\""
par VlanExample.host2.tcp typename "\"inet.transportlayer.tcp.Tcp\""
par VlanExample.host2.tcp crcMode "\"computed\""
attr enum declared,computed
par VlanExample.host2.tcp advertisedWindow 7504
par VlanExample.host2.tcp delayedAcksEnabled false
par VlanExample.host2.tcp nagleEnabled true
par VlanExample.host2.tcp limitedTransmitEnabled false
par VlanExample.host2.tcp increasedIWEnabled false
par VlanExample.host2.tcp sackSupport false
par VlanExample.host2.tcp windowScalingSupport false
par VlanExample.host2.tcp windowScalingFactor -1
par VlanExample.host2.tcp timestampSupport false
par VlanExample.host2.tcp mss 536
par VlanExample.host2.tcp msl 120s
attr unit s
par VlanExample.host2.tcp tcpAlgorithmClass "\"TcpReno\""
par VlanExample.host2.tcp useDataNotification false
par VlanExample.host2.tcp dupthresh 3
par VlanExample.host2.tcp initialSsthresh 4294967295
par VlanExample.host2.tcp stopOperationExtraTime 0s
attr unit s
par VlanExample.host2.tcp stopOperationTimeout 2s
attr unit s
par VlanExample.host2.tcp ecnWillingness false
par VlanExample.host2.tcp dctcpGamma 0.0625
par VlanExample.host2.tn typename "\"inet.common.MessageDispatcher\""
par VlanExample.host2.tn displayStringTextFormat "\"processed %p pk (%l)\""
par VlanExample.host2.tn forwardServiceRegistration true
par VlanExample.host2.tn forwardProtocolRegistration true
par VlanExample.host2.app[0] typename "\"inet.applications.tcpapp.TcpEchoApp\""
par VlanExample.host2.app[0] localAddress "\"\""
par VlanExample.host2.app[0] localPort 1000
par VlanExample.host2.app[0] serverThreadModuleType "\"inet.applications.tcpapp.TcpEchoAppThread\""
par VlanExample.host2.app[0] stopOperationExtraTime -1s
attr unit s
par VlanExample.host2.app[0] stopOperationTimeout 2s
attr unit s
par VlanExample.host2.app[0] echoFactor 1
par VlanExample.host2.app[0] echoDelay 0s
attr unit s
scalar VlanExample.host2.app[0] bytesRcvd 0
scalar VlanExample.host2.app[0] bytesSent 0
scalar VlanExample.host2.app[0] packetReceived:count 0
attr interpolationmode none
attr recordingmode count
attr source packetReceived
attr title "packets received, count"
scalar VlanExample.host2.app[0] packetReceived:sum(packetBytes) 0
attr interpolationmode none
attr recordingmode sum(packetBytes)
attr source packetReceived
attr title "packets received, sum(packetBytes)"
statistic VlanExample.host2.app[0] endToEndDelay:histogram
field count 0
field mean -nan
field stddev nan
field min nan
field max nan
field sum 0
field sqrsum 0
attr interpolationmode none
attr recordingmode histogram
attr source dataAge(packetReceived)
attr title "end-to-end delay"
attr unit s
bin	-inf	0
bin	0	0
bin	1	0
statistic VlanExample.host2.app[0] endToEndDelay:weightedHistogram
field count 0
field mean -nan
field stddev nan
field min nan
field max nan
field weights 0
field weightedSum 0
field sqrSumWeights 0
field weightedSqrSum 0
attr interpolationmode none
attr recordingmode weightedHistogram
attr source dataAge(packetReceived)
attr title "end-to-end delay, weightedHistogram"
attr unit s
bin	-inf	0
bin	0	0
bin	1	0
scalar VlanExample.host2.app[0] packetSent:count 0
attr interpolationmode none
attr recordingmode count
attr source packetSent
attr title "packets sent, count"
scalar VlanExample.host2.app[0] packetSent:sum(packetBytes) 0
attr interpolationmode none
attr recordingmode sum(packetBytes)
attr source packetSent
attr title "packets sent, sum(packetBytes)"
par VlanExample.host2.at typename "\"inet.common.MessageDispatcher\""
par VlanExample.host2.at displayStringTextFormat "\"processed %p pk (%l)\""
par VlanExample.host2.at forwardServiceRegistration true
par VlanExample.host2.at forwardProtocolRegistration true
par VlanExample.host2 typename "\"inet.node.inet.StandardHost\""
par VlanExample.host2 hasStatus false
par VlanExample.host2 osgModel "\"\""
par VlanExample.host2 osgModelColor "\"\""
par VlanExample.host2 canvasImage "\"\""
par VlanExample.host2 canvasImageColor "\"\""
par VlanExample.host2 recordPcap false
par VlanExample.host2 numPcapRecorders 1
par VlanExample.host2 numLoInterfaces 1
par VlanExample.host2 numWlanInterfaces 0
par VlanExample.host2 numEthInterfaces 0
par VlanExample.host2 numPppInterfaces 0
par VlanExample.host2 numTunInterfaces 0
par VlanExample.host2 numVirtInterfaces 0
par VlanExample.host2 fcsMode "\"computed\""
attr enum declared,computed
par VlanExample.host2 hasIpv4 true
par VlanExample.host2 hasIpv6 false
par VlanExample.host2 hasGn false
par VlanExample.host2 forwarding false
par VlanExample.host2 multicastForwarding false
par VlanExample.host2 hasUdp true
par VlanExample.host2 hasTcp true
par VlanExample.host2 hasSctp false
par VlanExample.host2 numApps 1
par VlanExample typename "\"inet.examples.ethernet.vlan.VlanExample\""

