version 3
run DualConn-SplitBearer-DL-0-20251122-00:30:52-294995
attr configname DualConn-SplitBearer-DL
attr datetime 20251122-00:30:52
attr datetimef 20251122-003052
attr experiment DualConn-SplitBearer-DL
attr inifile omnetpp.ini
attr iterationvars ""
attr iterationvarsd ""
attr iterationvarsf ""
attr measurement ""
attr network simu5g.simulations.nr.networks.SingleCell_withSecondaryGnb
attr processid 294995
attr repetition 0
attr replication #0
attr resultdir results
attr runnumber 0
attr seedset 0
config extends DualConnectivity-VoIP-DL
config description "dual connectivity, split bearer, Voice-over-IP (downlink)"
config *.server.app[*].tos 20
config extends DualConnectivity
config description "Base configuration, do not run this config!"
config *.ue[*].numApps 1
config *.server.numApps 1
config *.ue[*].app[*].typename VoipReceiver
config *.ue[*].app[*].localPort 3000+ancestorIndex(0)
config *.server.app[*].typename VoipSender
config *.server.app[*].packetSize 40B
config *.server.app[*].destAddress "\"ue[0]\""
config *.server.app[*].localPort 3088+ancestorIndex(0)
config *.server.app[*].destPort 3000+ancestorIndex(0)
config *.server.app[*].startTime uniform(0s,0.02s)
config network simu5g.simulations.nr.networks.SingleCell_withSecondaryGnb
config sim-time-limit 20s
config description "Base configuration, do not run this config!"
config *.masterEnb.mobility.initialX 300m
config *.masterEnb.mobility.initialY 300m
config *.secondaryGnb.mobility.initialX 600m
config *.secondaryGnb.mobility.initialY 300m
config *.masterEnb.cellularNic.typename LteNicEnbD2D
config *.masterEnb.cellularNic.pdcp.typename NrPdcpEnb
config *.secondaryGnb.masterId 1
config **.dualConnectivityEnabled true
config *.*nb.numX2Apps 1
config *.*nb.x2App[*].server.localPort "5000 + ancestorIndex(1)"
config *.masterEnb.x2App[0].client.connectAddress "\"secondaryGnb%x2ppp0\""
config *.secondaryGnb.x2App[0].client.connectAddress "\"masterEnb%x2ppp0\""
config *.numUe 1
config *.ue[0].macCellId 1
config *.ue[0].masterId 1
config *.ue[0].nrMacCellId 2
config *.ue[0].nrMasterId 2
config *.ue[0].mobility.initialX 450m
config *.ue[0].mobility.initialY 350m
config sim-time-limit 20s
config seed-set 0
config output-scalar-file results/DualConn-SplitBearer-DL/-0.sca
config output-vector-file results/DualConn-SplitBearer-DL/-0.vec
config **.vector-recording false
config **.sctp.**.scalar-recording false
config **.sctp.**.vector-recording false
config **.routingRecorder.enabled false
config **.mobility.constraintAreaMaxX 1000m
config **.mobility.constraintAreaMaxY 1000m
config **.mobility.constraintAreaMinX 0m
config **.mobility.constraintAreaMinY 0m
config **.mobility.constraintAreaMinZ 0m
config **.mobility.constraintAreaMaxZ 0m
config **.mobility.initFromDisplayString false
config **.numBands 50
config **.ueTxPower 26dBm
config **.eNodeBTxPower 40dBm
config **.targetBler 0.01
config **.blerShift 5
config **.sctp.nagleEnabled false
config **.sctp.enableHeartbeats false
config *.configurator.config "xmldoc(\"./demo.xml\")"

scalar SingleCell_withSecondaryGnb.masterEnb.x2App[0].client ums 1452
scalar SingleCell_withSecondaryGnb.secondaryGnb.x2App[0].client ums 1452
par SingleCell_withSecondaryGnb.server.pppg$o[0].channel typename "\"inet.node.ethernet.Eth10G\""
par SingleCell_withSecondaryGnb.server.pppg$o[0].channel disabled false
attr mutable ""
par SingleCell_withSecondaryGnb.server.pppg$o[0].channel delay 5e-08s
attr mutable ""
attr unit s
par SingleCell_withSecondaryGnb.server.pppg$o[0].channel datarate 1e+10bps
attr mutable ""
attr unit bps
par SingleCell_withSecondaryGnb.server.pppg$o[0].channel ber 0
attr mutable ""
par SingleCell_withSecondaryGnb.server.pppg$o[0].channel per 0
attr mutable ""
par SingleCell_withSecondaryGnb.server.pppg$o[0].channel length 10m
attr unit m
par SingleCell_withSecondaryGnb.router.pppg$o[0].channel typename "\"inet.node.ethernet.Eth10G\""
par SingleCell_withSecondaryGnb.router.pppg$o[0].channel disabled false
attr mutable ""
par SingleCell_withSecondaryGnb.router.pppg$o[0].channel delay 5e-08s
attr mutable ""
attr unit s
par SingleCell_withSecondaryGnb.router.pppg$o[0].channel datarate 1e+10bps
attr mutable ""
attr unit bps
par SingleCell_withSecondaryGnb.router.pppg$o[0].channel ber 0
attr mutable ""
par SingleCell_withSecondaryGnb.router.pppg$o[0].channel per 0
attr mutable ""
par SingleCell_withSecondaryGnb.router.pppg$o[0].channel length 10m
attr unit m
par SingleCell_withSecondaryGnb.router.pppg$o[1].channel typename "\"inet.node.ethernet.Eth10G\""
par SingleCell_withSecondaryGnb.router.pppg$o[1].channel disabled false
attr mutable ""
par SingleCell_withSecondaryGnb.router.pppg$o[1].channel delay 5e-08s
attr mutable ""
attr unit s
par SingleCell_withSecondaryGnb.router.pppg$o[1].channel datarate 1e+10bps
attr mutable ""
attr unit bps
par SingleCell_withSecondaryGnb.router.pppg$o[1].channel ber 0
attr mutable ""
par SingleCell_withSecondaryGnb.router.pppg$o[1].channel per 0
attr mutable ""
par SingleCell_withSecondaryGnb.router.pppg$o[1].channel length 10m
attr unit m
par SingleCell_withSecondaryGnb.pgw.filterGate$o.channel typename "\"inet.node.ethernet.Eth10G\""
par SingleCell_withSecondaryGnb.pgw.filterGate$o.channel disabled false
attr mutable ""
par SingleCell_withSecondaryGnb.pgw.filterGate$o.channel delay 5e-08s
attr mutable ""
attr unit s
par SingleCell_withSecondaryGnb.pgw.filterGate$o.channel datarate 1e+10bps
attr mutable ""
attr unit bps
par SingleCell_withSecondaryGnb.pgw.filterGate$o.channel ber 0
attr mutable ""
par SingleCell_withSecondaryGnb.pgw.filterGate$o.channel per 0
attr mutable ""
par SingleCell_withSecondaryGnb.pgw.filterGate$o.channel length 10m
attr unit m
par SingleCell_withSecondaryGnb.pgw.pppg$o[0].channel typename "\"inet.node.ethernet.Eth10G\""
par SingleCell_withSecondaryGnb.pgw.pppg$o[0].channel disabled false
attr mutable ""
par SingleCell_withSecondaryGnb.pgw.pppg$o[0].channel delay 5e-08s
attr mutable ""
attr unit s
par SingleCell_withSecondaryGnb.pgw.pppg$o[0].channel datarate 1e+10bps
attr mutable ""
attr unit bps
par SingleCell_withSecondaryGnb.pgw.pppg$o[0].channel ber 0
attr mutable ""
par SingleCell_withSecondaryGnb.pgw.pppg$o[0].channel per 0
attr mutable ""
par SingleCell_withSecondaryGnb.pgw.pppg$o[0].channel length 10m
attr unit m
par SingleCell_withSecondaryGnb.masterEnb.ppp$o.channel typename "\"inet.node.ethernet.Eth10G\""
par SingleCell_withSecondaryGnb.masterEnb.ppp$o.channel disabled false
attr mutable ""
par SingleCell_withSecondaryGnb.masterEnb.ppp$o.channel delay 5e-08s
attr mutable ""
attr unit s
par SingleCell_withSecondaryGnb.masterEnb.ppp$o.channel datarate 1e+10bps
attr mutable ""
attr unit bps
par SingleCell_withSecondaryGnb.masterEnb.ppp$o.channel ber 0
attr mutable ""
par SingleCell_withSecondaryGnb.masterEnb.ppp$o.channel per 0
attr mutable ""
par SingleCell_withSecondaryGnb.masterEnb.ppp$o.channel length 10m
attr unit m
par SingleCell_withSecondaryGnb.masterEnb.x2$o[0].channel typename "\"inet.node.ethernet.Eth10G\""
par SingleCell_withSecondaryGnb.masterEnb.x2$o[0].channel disabled false
attr mutable ""
par SingleCell_withSecondaryGnb.masterEnb.x2$o[0].channel delay 5e-08s
attr mutable ""
attr unit s
par SingleCell_withSecondaryGnb.masterEnb.x2$o[0].channel datarate 1e+10bps
attr mutable ""
attr unit bps
par SingleCell_withSecondaryGnb.masterEnb.x2$o[0].channel ber 0
attr mutable ""
par SingleCell_withSecondaryGnb.masterEnb.x2$o[0].channel per 0
attr mutable ""
par SingleCell_withSecondaryGnb.masterEnb.x2$o[0].channel length 10m
attr unit m
par SingleCell_withSecondaryGnb.secondaryGnb.x2$o[0].channel typename "\"inet.node.ethernet.Eth10G\""
par SingleCell_withSecondaryGnb.secondaryGnb.x2$o[0].channel disabled false
attr mutable ""
par SingleCell_withSecondaryGnb.secondaryGnb.x2$o[0].channel delay 5e-08s
attr mutable ""
attr unit s
par SingleCell_withSecondaryGnb.secondaryGnb.x2$o[0].channel datarate 1e+10bps
attr mutable ""
attr unit bps
par SingleCell_withSecondaryGnb.secondaryGnb.x2$o[0].channel ber 0
attr mutable ""
par SingleCell_withSecondaryGnb.secondaryGnb.x2$o[0].channel per 0
attr mutable ""
par SingleCell_withSecondaryGnb.secondaryGnb.x2$o[0].channel length 10m
attr unit m
par SingleCell_withSecondaryGnb.channelControl typename "\"simu5g.world.radio.LteChannelControl\""
par SingleCell_withSecondaryGnb.channelControl pMax 20mW
attr unit mW
par SingleCell_withSecondaryGnb.channelControl sat -110dBm
attr unit dBm
par SingleCell_withSecondaryGnb.channelControl alpha 2
par SingleCell_withSecondaryGnb.channelControl carrierFrequency 2.4e+09Hz
attr unit Hz
par SingleCell_withSecondaryGnb.channelControl numChannels 1
par SingleCell_withSecondaryGnb.routingRecorder typename "\"inet.networklayer.ipv4.RoutingTableRecorder\""
par SingleCell_withSecondaryGnb.routingRecorder enabled false
par SingleCell_withSecondaryGnb.configurator typename "\"inet.networklayer.configurator.ipv4.Ipv4NetworkConfigurator\""
par SingleCell_withSecondaryGnb.configurator minLinkWeight 0.001
par SingleCell_withSecondaryGnb.configurator configureIsolatedNetworksSeparatly false
par SingleCell_withSecondaryGnb.configurator config "<config>...</config> at /home/ghaith/Documents/omnetpp_project/simu5g/simulations/nr/dualConnectivity//./demo.xml:1"
par SingleCell_withSecondaryGnb.configurator assignAddresses true
par SingleCell_withSecondaryGnb.configurator assignUniqueAddresses true
par SingleCell_withSecondaryGnb.configurator assignDisjunctSubnetAddresses true
par SingleCell_withSecondaryGnb.configurator addStaticRoutes true
par SingleCell_withSecondaryGnb.configurator addDefaultRoutes true
par SingleCell_withSecondaryGnb.configurator addSubnetRoutes true
par SingleCell_withSecondaryGnb.configurator addDirectRoutes true
par SingleCell_withSecondaryGnb.configurator optimizeRoutes true
par SingleCell_withSecondaryGnb.configurator dumpTopology false
par SingleCell_withSecondaryGnb.configurator dumpLinks false
par SingleCell_withSecondaryGnb.configurator dumpAddresses false
par SingleCell_withSecondaryGnb.configurator dumpRoutes false
par SingleCell_withSecondaryGnb.configurator dumpConfig "\"\""
par SingleCell_withSecondaryGnb.binder typename "\"simu5g.common.binder.Binder\""
par SingleCell_withSecondaryGnb.binder blerShift 5
par SingleCell_withSecondaryGnb.binder maxDataRatePerRb 1.16Mbps
attr unit Mbps
par SingleCell_withSecondaryGnb.binder printTrafficGeneratorConfig false
par SingleCell_withSecondaryGnb.carrierAggregation.componentCarrier[0] typename "\"simu5g.common.carrierAggregation.ComponentCarrier\""
par SingleCell_withSecondaryGnb.carrierAggregation.componentCarrier[0] binderModule "\"binder\""
par SingleCell_withSecondaryGnb.carrierAggregation.componentCarrier[0] carrierFrequency 2GHz
attr unit GHz
par SingleCell_withSecondaryGnb.carrierAggregation.componentCarrier[0] numBands 50
par SingleCell_withSecondaryGnb.carrierAggregation.componentCarrier[0] numerologyIndex 0
par SingleCell_withSecondaryGnb.carrierAggregation.componentCarrier[0] useTdd false
par SingleCell_withSecondaryGnb.carrierAggregation.componentCarrier[0] tddNumSymbolsDl 7
par SingleCell_withSecondaryGnb.carrierAggregation.componentCarrier[0] tddNumSymbolsUl 7
par SingleCell_withSecondaryGnb.carrierAggregation typename "\"simu5g.common.carrierAggregation.CarrierAggregation\""
par SingleCell_withSecondaryGnb.carrierAggregation numComponentCarriers 1
par SingleCell_withSecondaryGnb.server.pppg$i[0].channel typename "\"ned.IdealChannel\""
par SingleCell_withSecondaryGnb.server.ppp[0].phys$o.channel typename "\"ned.IdealChannel\""
par SingleCell_withSecondaryGnb.server.interfaceTable typename "\"inet.networklayer.common.InterfaceTable\""
par SingleCell_withSecondaryGnb.server.interfaceTable displayAddresses false
par SingleCell_withSecondaryGnb.server.cb typename "\"inet.common.MessageDispatcher\""
par SingleCell_withSecondaryGnb.server.cb displayStringTextFormat "\"processed %p pk (%l)\""
par SingleCell_withSecondaryGnb.server.cb forwardServiceRegistration true
par SingleCell_withSecondaryGnb.server.cb forwardProtocolRegistration true
par SingleCell_withSecondaryGnb.server.bl typename "\"inet.common.MessageDispatcher\""
par SingleCell_withSecondaryGnb.server.bl displayStringTextFormat "\"processed %p pk (%l)\""
par SingleCell_withSecondaryGnb.server.bl forwardServiceRegistration true
par SingleCell_withSecondaryGnb.server.bl forwardProtocolRegistration true
par SingleCell_withSecondaryGnb.server.li typename "\"inet.common.MessageDispatcher\""
par SingleCell_withSecondaryGnb.server.li displayStringTextFormat "\"processed %p pk (%l)\""
par SingleCell_withSecondaryGnb.server.li forwardServiceRegistration true
par SingleCell_withSecondaryGnb.server.li forwardProtocolRegistration true
par SingleCell_withSecondaryGnb.server.lo[0].upperLayerIn.channel typename "\"ned.IdealChannel\""
par SingleCell_withSecondaryGnb.server.lo[0].lo.upperLayerOut.channel typename "\"ned.IdealChannel\""
par SingleCell_withSecondaryGnb.server.lo[0].lo typename "\"inet.linklayer.loopback.Loopback\""
par SingleCell_withSecondaryGnb.server.lo[0].lo interfaceTableModule "\"SingleCell_withSecondaryGnb.server.interfaceTable\""
par SingleCell_withSecondaryGnb.server.lo[0].lo mtu 4470B
attr unit B
scalar SingleCell_withSecondaryGnb.server.lo[0].lo rcvdPkFromHl:count 0
attr interpolationmode none
attr recordingmode count
attr source packetReceivedFromUpper
attr title "packets received from higher layer, count"
scalar SingleCell_withSecondaryGnb.server.lo[0].lo rcvdPkFromHl:sum(packetBytes) 0
attr interpolationmode none
attr recordingmode sum(packetBytes)
attr source packetReceivedFromUpper
attr title "packets received from higher layer, sum(packetBytes)"
scalar SingleCell_withSecondaryGnb.server.lo[0].lo passedUpPk:count 0
attr interpolationmode none
attr recordingmode count
attr source packetSentToUpper
attr title "packets passed to higher layer, count"
scalar SingleCell_withSecondaryGnb.server.lo[0].lo passedUpPk:sum(packetBytes) 0
attr interpolationmode none
attr recordingmode sum(packetBytes)
attr source packetSentToUpper
attr title "packets passed to higher layer, sum(packetBytes)"
par SingleCell_withSecondaryGnb.server.lo[0] typename "\"inet.linklayer.loopback.LoopbackInterface\""
par SingleCell_withSecondaryGnb.server.lo[0] displayStringTextFormat "\"%a (%i)\\n%m\""
par SingleCell_withSecondaryGnb.server.lo[0] recordPcap false
par SingleCell_withSecondaryGnb.server.lo[0] numPcapRecorders 0
par SingleCell_withSecondaryGnb.server.lo[0] interfaceTableModule "\"SingleCell_withSecondaryGnb.server.interfaceTable\""
scalar SingleCell_withSecondaryGnb.server.lo[0] packetDropInterfaceDown:count 0
attr interpolationmode none
attr recordingmode count
attr source packetDropReasonIsInterfaceDown(packetDropped)
attr title "packet drops: interface down, count"
scalar SingleCell_withSecondaryGnb.server.lo[0] packetDropInterfaceDown:sum(packetBytes) 0
attr interpolationmode none
attr recordingmode sum(packetBytes)
attr source packetDropReasonIsInterfaceDown(packetDropped)
attr title "packet drops: interface down, sum(packetBytes)"
scalar SingleCell_withSecondaryGnb.server.lo[0] packetDropNoCarrier:count 0
attr interpolationmode none
attr recordingmode count
attr source packetDropReasonIsNoCarrier(packetDropped)
attr title "packet drops: no carrier, count"
scalar SingleCell_withSecondaryGnb.server.lo[0] packetDropNoCarrier:sum(packetBytes) 0
attr interpolationmode none
attr recordingmode sum(packetBytes)
attr source packetDropReasonIsNoCarrier(packetDropped)
attr title "packet drops: no carrier, sum(packetBytes)"
par SingleCell_withSecondaryGnb.server.ppp[0].phys$i.channel typename "\"ned.IdealChannel\""
par SingleCell_withSecondaryGnb.server.ppp[0].ppp.phys$o.channel typename "\"ned.IdealChannel\""
par SingleCell_withSecondaryGnb.server.ppp[0].ppp.upperLayerOut.channel typename "\"ned.IdealChannel\""
par SingleCell_withSecondaryGnb.server.ppp[0].upperLayerIn.channel typename "\"ned.IdealChannel\""
par SingleCell_withSecondaryGnb.server.ppp[0].queue typename "\"inet.queueing.queue.DropTailQueue\""
par SingleCell_withSecondaryGnb.server.ppp[0].queue displayStringTextFormat "\"contains %p pk (%l) pushed %u\\npulled %o removed %r dropped %d\""
par SingleCell_withSecondaryGnb.server.ppp[0].queue packetCapacity 10000
par SingleCell_withSecondaryGnb.server.ppp[0].queue dataCapacity -1b
attr unit b
par SingleCell_withSecondaryGnb.server.ppp[0].queue dropperClass "\"inet::queueing::PacketAtCollectionEndDropper\""
par SingleCell_withSecondaryGnb.server.ppp[0].queue comparatorClass "\"\""
par SingleCell_withSecondaryGnb.server.ppp[0].queue bufferModule "\"\""
scalar SingleCell_withSecondaryGnb.server.ppp[0].queue queueLength:last 0
attr autoWarmupFilter false
attr interpolationmode sample-hold
attr recordingmode last
attr source "warmup(atomic(constant0(packetPushEnded) + count(packetPushStarted) - count(packetPulled) - count(packetRemoved) - count(packetDropped)))"
attr title "queue length, last"
attr unit pk
scalar SingleCell_withSecondaryGnb.server.ppp[0].queue queueLength:max 0
attr autoWarmupFilter false
attr interpolationmode sample-hold
attr recordingmode max
attr source "warmup(atomic(constant0(packetPushEnded) + count(packetPushStarted) - count(packetPulled) - count(packetRemoved) - count(packetDropped)))"
attr title "queue length, max"
attr unit pk
scalar SingleCell_withSecondaryGnb.server.ppp[0].queue queueLength:timeavg 0
attr autoWarmupFilter false
attr interpolationmode sample-hold
attr recordingmode timeavg
attr source "warmup(atomic(constant0(packetPushEnded) + count(packetPushStarted) - count(packetPulled) - count(packetRemoved) - count(packetDropped)))"
attr title "queue length, timeavg"
attr unit pk
scalar SingleCell_withSecondaryGnb.server.ppp[0].queue queueBitLength:last 0
attr autoWarmupFilter false
attr interpolationmode sample-hold
attr recordingmode last
attr source "warmup(atomic(constant0(packetPushEnded) + sum(packetLength(packetPushStarted)) - sum(packetLength(packetPulled)) - sum(packetLength(packetRemoved)) - sum(packetLength(packetDropped))))"
attr title "queue bit length, last"
attr unit b
scalar SingleCell_withSecondaryGnb.server.ppp[0].queue queueBitLength:max 0
attr autoWarmupFilter false
attr interpolationmode sample-hold
attr recordingmode max
attr source "warmup(atomic(constant0(packetPushEnded) + sum(packetLength(packetPushStarted)) - sum(packetLength(packetPulled)) - sum(packetLength(packetRemoved)) - sum(packetLength(packetDropped))))"
attr title "queue bit length, max"
attr unit b
scalar SingleCell_withSecondaryGnb.server.ppp[0].queue queueBitLength:timeavg 0
attr autoWarmupFilter false
attr interpolationmode sample-hold
attr recordingmode timeavg
attr source "warmup(atomic(constant0(packetPushEnded) + sum(packetLength(packetPushStarted)) - sum(packetLength(packetPulled)) - sum(packetLength(packetRemoved)) - sum(packetLength(packetDropped))))"
attr title "queue bit length, timeavg"
attr unit b
statistic SingleCell_withSecondaryGnb.server.ppp[0].queue queueingTime:histogram
field count 0
field mean -nan
field stddev nan
field min nan
field max nan
field sum 0
field sqrsum 0
attr interpolationmode none
attr recordingmode histogram
attr source queueingTime(packetPulled)
attr title "queueing times"
attr unit s
bin	-inf	0
bin	0	0
bin	1	0
scalar SingleCell_withSecondaryGnb.server.ppp[0].queue outgoingPackets:count 0
attr recordingmode count
attr source packetPulled
attr title "outgoing packets, count"
attr unit pk
scalar SingleCell_withSecondaryGnb.server.ppp[0].queue outgoingPacketLengths:sum 0
attr interpolationmode none
attr recordingmode sum
attr source packetLength(packetPulled)
attr title "outgoing packet lengths, sum"
attr unit b
statistic SingleCell_withSecondaryGnb.server.ppp[0].queue outgoingPacketLengths:histogram
field count 0
field mean -nan
field stddev nan
field min nan
field max nan
field sum 0
field sqrsum 0
attr interpolationmode none
attr recordingmode histogram
attr source packetLength(packetPulled)
attr title "outgoing packet lengths"
attr unit b
bin	-inf	0
bin	0	0
bin	1	0
statistic SingleCell_withSecondaryGnb.server.ppp[0].queue flowQueueingTime:histogram
field count 0
field mean -nan
field stddev nan
field min nan
field max nan
field sum 0
field sqrsum 0
attr interpolationmode none
attr recordingmode histogram
attr source queueingTime(demuxFlow(packetPulled))
attr title "flow queueing times"
attr unit s
bin	-inf	0
bin	0	0
bin	1	0
scalar SingleCell_withSecondaryGnb.server.ppp[0].queue incomingPackets:count 0
attr recordingmode count
attr source packetPushStarted
attr title "incoming packets, count"
attr unit pk
scalar SingleCell_withSecondaryGnb.server.ppp[0].queue incomingPacketLengths:sum 0
attr interpolationmode none
attr recordingmode sum
attr source packetLength(packetPushStarted)
attr title "incoming packet lengths, sum"
attr unit b
statistic SingleCell_withSecondaryGnb.server.ppp[0].queue incomingPacketLengths:histogram
field count 0
field mean -nan
field stddev nan
field min nan
field max nan
field sum 0
field sqrsum 0
attr interpolationmode none
attr recordingmode histogram
attr source packetLength(packetPushStarted)
attr title "incoming packet lengths"
attr unit b
bin	-inf	0
bin	0	0
bin	1	0
scalar SingleCell_withSecondaryGnb.server.ppp[0].queue droppedPacketsQueueOverflow:count 0
attr interpolationmode none
attr recordingmode count
attr source packetDropReasonIsQueueOverflow(packetDropped)
attr title "dropped packets: queue overflow, count"
attr unit pk
scalar SingleCell_withSecondaryGnb.server.ppp[0].queue droppedPacketLengthsQueueOverflow:sum 0
attr interpolationmode none
attr recordingmode sum
attr source packetLength(packetDropReasonIsQueueOverflow(packetDropped))
attr title "dropped packet lengths: queue overflow, sum"
attr unit b
par SingleCell_withSecondaryGnb.server.ppp[0].ppp typename "\"inet.linklayer.ppp.Ppp\""
par SingleCell_withSecondaryGnb.server.ppp[0].ppp interfaceTableModule "\"SingleCell_withSecondaryGnb.server.interfaceTable\""
par SingleCell_withSecondaryGnb.server.ppp[0].ppp displayStringTextFormat "\"rate: %b\\nsent: %s, rcvd: %r\\nqueue: %q, drop: %d\""
par SingleCell_withSecondaryGnb.server.ppp[0].ppp sendRawBytes false
par SingleCell_withSecondaryGnb.server.ppp[0].ppp mtu 4470B
attr unit B
par SingleCell_withSecondaryGnb.server.ppp[0].ppp stopOperationExtraTime -1s
attr unit s
par SingleCell_withSecondaryGnb.server.ppp[0].ppp stopOperationTimeout 2s
attr unit s
scalar SingleCell_withSecondaryGnb.server.ppp[0].ppp transmissionState:timeavg 0
attr interpolationmode sample-hold
attr recordingmode timeavg
attr source transmissionStateChanged
attr title "tx state, timeavg"
scalar SingleCell_withSecondaryGnb.server.ppp[0].ppp rxPkOk:count 0
attr interpolationmode none
attr recordingmode count
attr source rxPkOk
attr title "packets received OK, count"
scalar SingleCell_withSecondaryGnb.server.ppp[0].ppp rxPkOk:sum(packetBytes) 0
attr interpolationmode none
attr recordingmode sum(packetBytes)
attr source rxPkOk
attr title "packets received OK, sum(packetBytes)"
scalar SingleCell_withSecondaryGnb.server.ppp[0].ppp txPk:count 0
attr interpolationmode none
attr recordingmode count
attr source packetSentToLower
attr title "packets transmitted, count"
scalar SingleCell_withSecondaryGnb.server.ppp[0].ppp txPk:sum(packetBytes) 0
attr interpolationmode none
attr recordingmode sum(packetBytes)
attr source packetSentToLower
attr title "packets transmitted, sum(packetBytes)"
scalar SingleCell_withSecondaryGnb.server.ppp[0].ppp rcvdPkFromHl:count 0
attr interpolationmode none
attr recordingmode count
attr source packetReceivedFromUpper
attr title "packets received from higher layer, count"
scalar SingleCell_withSecondaryGnb.server.ppp[0].ppp rcvdPkFromHl:sum(packetBytes) 0
attr interpolationmode none
attr recordingmode sum(packetBytes)
attr source packetReceivedFromUpper
attr title "packets received from higher layer, sum(packetBytes)"
scalar SingleCell_withSecondaryGnb.server.ppp[0].ppp passedUpPk:count 0
attr interpolationmode none
attr recordingmode count
attr source packetSentToUpper
attr title "packets passed to higher layer, count"
scalar SingleCell_withSecondaryGnb.server.ppp[0].ppp passedUpPk:sum(packetBytes) 0
attr interpolationmode none
attr recordingmode sum(packetBytes)
attr source packetSentToUpper
attr title "packets passed to higher layer, sum(packetBytes)"
scalar SingleCell_withSecondaryGnb.server.ppp[0].ppp packetDropIncorrectlyReceived:count 0
attr interpolationmode none
attr recordingmode count
attr source packetDropReasonIsIncorrectlyReceived(packetDropped)
attr title "packet drop: incorrectly received, count"
scalar SingleCell_withSecondaryGnb.server.ppp[0].ppp packetDropIncorrectlyReceived:sum(packetBytes) 0
attr interpolationmode none
attr recordingmode sum(packetBytes)
attr source packetDropReasonIsIncorrectlyReceived(packetDropped)
attr title "packet drop: incorrectly received, sum(packetBytes)"
scalar SingleCell_withSecondaryGnb.server.ppp[0].ppp packetDropInterfaceDown:count 0
attr interpolationmode none
attr recordingmode count
attr source packetDropReasonIsInterfaceDown(packetDropped)
attr title "packet drop: interface down, count"
scalar SingleCell_withSecondaryGnb.server.ppp[0].ppp packetDropInterfaceDown:sum(packetBytes) 0
attr interpolationmode none
attr recordingmode sum(packetBytes)
attr source packetDropReasonIsInterfaceDown(packetDropped)
attr title "packet drop: interface down, sum(packetBytes)"
par SingleCell_withSecondaryGnb.server.ppp[0] typename "\"inet.linklayer.ppp.PppInterface\""
par SingleCell_withSecondaryGnb.server.ppp[0] displayStringTextFormat "\"%a (%i)\\n%m\""
par SingleCell_withSecondaryGnb.server.ppp[0] recordPcap false
par SingleCell_withSecondaryGnb.server.ppp[0] numPcapRecorders 0
par SingleCell_withSecondaryGnb.server.ppp[0] interfaceTableModule "\"SingleCell_withSecondaryGnb.server.interfaceTable\""
scalar SingleCell_withSecondaryGnb.server.ppp[0] packetDropInterfaceDown:count 0
attr interpolationmode none
attr recordingmode count
attr source packetDropReasonIsInterfaceDown(packetDropped)
attr title "packet drops: interface down, count"
scalar SingleCell_withSecondaryGnb.server.ppp[0] packetDropInterfaceDown:sum(packetBytes) 0
attr interpolationmode none
attr recordingmode sum(packetBytes)
attr source packetDropReasonIsInterfaceDown(packetDropped)
attr title "packet drops: interface down, sum(packetBytes)"
scalar SingleCell_withSecondaryGnb.server.ppp[0] packetDropNoCarrier:count 0
attr interpolationmode none
attr recordingmode count
attr source packetDropReasonIsNoCarrier(packetDropped)
attr title "packet drops: no carrier, count"
scalar SingleCell_withSecondaryGnb.server.ppp[0] packetDropNoCarrier:sum(packetBytes) 0
attr interpolationmode none
attr recordingmode sum(packetBytes)
attr source packetDropReasonIsNoCarrier(packetDropped)
attr title "packet drops: no carrier, sum(packetBytes)"
par SingleCell_withSecondaryGnb.server.ipv4.transportIn.channel typename "\"ned.IdealChannel\""
par SingleCell_withSecondaryGnb.server.ipv4.up.out[0].channel typename "\"ned.IdealChannel\""
par SingleCell_withSecondaryGnb.server.ipv4.lp.out[2].channel typename "\"ned.IdealChannel\""
par SingleCell_withSecondaryGnb.server.ipv4.ifIn.channel typename "\"ned.IdealChannel\""
par SingleCell_withSecondaryGnb.server.ipv4.configurator typename "\"inet.networklayer.configurator.ipv4.Ipv4NodeConfigurator\""
par SingleCell_withSecondaryGnb.server.ipv4.configurator interfaceTableModule "\"SingleCell_withSecondaryGnb.server.interfaceTable\""
par SingleCell_withSecondaryGnb.server.ipv4.configurator routingTableModule "\"SingleCell_withSecondaryGnb.server.ipv4.routingTable\""
par SingleCell_withSecondaryGnb.server.ipv4.configurator networkConfiguratorModule "\"configurator\""
par SingleCell_withSecondaryGnb.server.ipv4.configurator configureRoutingTable true
par SingleCell_withSecondaryGnb.server.ipv4.routingTable typename "\"inet.networklayer.ipv4.Ipv4RoutingTable\""
par SingleCell_withSecondaryGnb.server.ipv4.routingTable interfaceTableModule "\"SingleCell_withSecondaryGnb.server.interfaceTable\""
par SingleCell_withSecondaryGnb.server.ipv4.routingTable routerId "\"auto\""
par SingleCell_withSecondaryGnb.server.ipv4.routingTable netmaskRoutes "\"*\""
par SingleCell_withSecondaryGnb.server.ipv4.routingTable forwarding false
par SingleCell_withSecondaryGnb.server.ipv4.routingTable multicastForwarding false
par SingleCell_withSecondaryGnb.server.ipv4.routingTable useAdminDist false
par SingleCell_withSecondaryGnb.server.ipv4.routingTable routingFile "\"\""
par SingleCell_withSecondaryGnb.server.ipv4.natTable typename "\"inet.networklayer.ipv4.Ipv4NatTable\""
par SingleCell_withSecondaryGnb.server.ipv4.natTable networkProtocolModule "\"^.ip\""
par SingleCell_withSecondaryGnb.server.ipv4.natTable config "<config/> at content:1"
par SingleCell_withSecondaryGnb.server.ipv4.up typename "\"inet.common.MessageDispatcher\""
par SingleCell_withSecondaryGnb.server.ipv4.up displayStringTextFormat "\"processed %p pk (%l)\""
par SingleCell_withSecondaryGnb.server.ipv4.up forwardServiceRegistration true
par SingleCell_withSecondaryGnb.server.ipv4.up forwardProtocolRegistration true
par SingleCell_withSecondaryGnb.server.ipv4.igmp typename "\"inet.networklayer.ipv4.Igmpv2\""
par SingleCell_withSecondaryGnb.server.ipv4.igmp interfaceTableModule "\"SingleCell_withSecondaryGnb.server.interfaceTable\""
par SingleCell_withSecondaryGnb.server.ipv4.igmp routingTableModule "\"SingleCell_withSecondaryGnb.server.ipv4.routingTable\""
par SingleCell_withSecondaryGnb.server.ipv4.igmp crcMode "\"declared\""
attr enum declared,computed
par SingleCell_withSecondaryGnb.server.ipv4.igmp enabled true
par SingleCell_withSecondaryGnb.server.ipv4.igmp robustnessVariable 2
par SingleCell_withSecondaryGnb.server.ipv4.igmp queryInterval 125s
attr unit s
par SingleCell_withSecondaryGnb.server.ipv4.igmp queryResponseInterval 10s
attr unit s
par SingleCell_withSecondaryGnb.server.ipv4.igmp groupMembershipInterval 260s
attr unit s
par SingleCell_withSecondaryGnb.server.ipv4.igmp otherQuerierPresentInterval 255s
attr unit s
par SingleCell_withSecondaryGnb.server.ipv4.igmp startupQueryInterval 31.25s
attr unit s
par SingleCell_withSecondaryGnb.server.ipv4.igmp startupQueryCount 2
par SingleCell_withSecondaryGnb.server.ipv4.igmp lastMemberQueryInterval 1s
attr unit s
par SingleCell_withSecondaryGnb.server.ipv4.igmp lastMemberQueryCount 2
par SingleCell_withSecondaryGnb.server.ipv4.igmp unsolicitedReportInterval 10s
attr unit s
par SingleCell_withSecondaryGnb.server.ipv4.icmp typename "\"inet.networklayer.ipv4.Icmp\""
par SingleCell_withSecondaryGnb.server.ipv4.icmp interfaceTableModule "\"SingleCell_withSecondaryGnb.server.interfaceTable\""
par SingleCell_withSecondaryGnb.server.ipv4.icmp routingTableModule "\"SingleCell_withSecondaryGnb.server.ipv4.routingTable\""
par SingleCell_withSecondaryGnb.server.ipv4.icmp crcMode "\"declared\""
attr enum declared,computed
attr mutable ""
par SingleCell_withSecondaryGnb.server.ipv4.icmp quoteLength 8B
attr mutable ""
attr unit B
par SingleCell_withSecondaryGnb.server.ipv4.mp typename "\"inet.common.MessageDispatcher\""
par SingleCell_withSecondaryGnb.server.ipv4.mp displayStringTextFormat "\"processed %p pk (%l)\""
par SingleCell_withSecondaryGnb.server.ipv4.mp forwardServiceRegistration true
par SingleCell_withSecondaryGnb.server.ipv4.mp forwardProtocolRegistration true
par SingleCell_withSecondaryGnb.server.ipv4.ip typename "\"inet.networklayer.ipv4.Ipv4\""
par SingleCell_withSecondaryGnb.server.ipv4.ip interfaceTableModule "\"SingleCell_withSecondaryGnb.server.interfaceTable\""
par SingleCell_withSecondaryGnb.server.ipv4.ip routingTableModule "\"SingleCell_withSecondaryGnb.server.ipv4.routingTable\""
par SingleCell_withSecondaryGnb.server.ipv4.ip arpModule "\"SingleCell_withSecondaryGnb.server.ipv4.arp\""
par SingleCell_withSecondaryGnb.server.ipv4.ip icmpModule "\"SingleCell_withSecondaryGnb.server.ipv4.icmp\""
par SingleCell_withSecondaryGnb.server.ipv4.ip crcMode "\"declared\""
attr enum declared,computed
par SingleCell_withSecondaryGnb.server.ipv4.ip timeToLive 32
par SingleCell_withSecondaryGnb.server.ipv4.ip multicastTimeToLive 32
par SingleCell_withSecondaryGnb.server.ipv4.ip fragmentTimeout 60s
attr unit s
par SingleCell_withSecondaryGnb.server.ipv4.ip limitedBroadcast false
par SingleCell_withSecondaryGnb.server.ipv4.ip directBroadcastInterfaces "\"\""
scalar SingleCell_withSecondaryGnb.server.ipv4.ip packetDropAddressResolutionFailed:count 0
attr interpolationmode none
attr recordingmode count
attr source packetDropReasonIsAddressResolutionFailed(packetDropped)
attr title "packet drop: address resolution failed, count"
scalar SingleCell_withSecondaryGnb.server.ipv4.ip packetDropAddressResolutionFailed:sum(packetBytes) 0
attr interpolationmode none
attr recordingmode sum(packetBytes)
attr source packetDropReasonIsAddressResolutionFailed(packetDropped)
attr title "packet drop: address resolution failed, sum(packetBytes)"
scalar SingleCell_withSecondaryGnb.server.ipv4.ip packetDropHopLimitReached:count 0
attr interpolationmode none
attr recordingmode count
attr source packetDropReasonIsHopLimitReached(packetDropped)
attr title "packet drop: hop limit reached, count"
scalar SingleCell_withSecondaryGnb.server.ipv4.ip packetDropHopLimitReached:sum(packetBytes) 0
attr interpolationmode none
attr recordingmode sum(packetBytes)
attr source packetDropReasonIsHopLimitReached(packetDropped)
attr title "packet drop: hop limit reached, sum(packetBytes)"
scalar SingleCell_withSecondaryGnb.server.ipv4.ip packetDropForwardingDisabled:count 0
attr interpolationmode none
attr recordingmode count
attr source packetDropReasonIsForwardingDisabled(packetDropped)
attr title "packet drop: forwarding disabled, count"
scalar SingleCell_withSecondaryGnb.server.ipv4.ip packetDropForwardingDisabled:sum(packetBytes) 0
attr interpolationmode none
attr recordingmode sum(packetBytes)
attr source packetDropReasonIsForwardingDisabled(packetDropped)
attr title "packet drop: forwarding disabled, sum(packetBytes)"
scalar SingleCell_withSecondaryGnb.server.ipv4.ip packetDropNoInterfaceFound:count 0
attr interpolationmode none
attr recordingmode count
attr source packetDropReasonIsNoInterfaceFound(packetDropped)
attr title "packet drop: no interface found, count"
scalar SingleCell_withSecondaryGnb.server.ipv4.ip packetDropNoInterfaceFound:sum(packetBytes) 0
attr interpolationmode none
attr recordingmode sum(packetBytes)
attr source packetDropReasonIsNoInterfaceFound(packetDropped)
attr title "packet drop: no interface found, sum(packetBytes)"
scalar SingleCell_withSecondaryGnb.server.ipv4.ip packetDropNoRouteFound:count 0
attr interpolationmode none
attr recordingmode count
attr source packetDropReasonIsNoRouteFound(packetDropped)
attr title "packet drop: no route found, count"
scalar SingleCell_withSecondaryGnb.server.ipv4.ip packetDropNoRouteFound:sum(packetBytes) 0
attr interpolationmode none
attr recordingmode sum(packetBytes)
attr source packetDropReasonIsNoRouteFound(packetDropped)
attr title "packet drop: no route found, sum(packetBytes)"
scalar SingleCell_withSecondaryGnb.server.ipv4.ip packetDropUndefined:count 0
attr interpolationmode none
attr recordingmode count
attr source packetDropReasonIsUndefined(packetDropped)
attr title "packet drop: undefined, count"
scalar SingleCell_withSecondaryGnb.server.ipv4.ip packetDropUndefined:sum(packetBytes) 0
attr interpolationmode none
attr recordingmode sum(packetBytes)
attr source packetDropReasonIsUndefined(packetDropped)
attr title "packet drop: undefined, sum(packetBytes)"
par SingleCell_withSecondaryGnb.server.ipv4.arp typename "\"inet.networklayer.arp.ipv4.Arp\""
par SingleCell_withSecondaryGnb.server.ipv4.arp interfaceTableModule "\"SingleCell_withSecondaryGnb.server.interfaceTable\""
par SingleCell_withSecondaryGnb.server.ipv4.arp routingTableModule "\"SingleCell_withSecondaryGnb.server.ipv4.routingTable\""
par SingleCell_withSecondaryGnb.server.ipv4.arp retryTimeout 1s
attr unit s
par SingleCell_withSecondaryGnb.server.ipv4.arp retryCount 3
par SingleCell_withSecondaryGnb.server.ipv4.arp cacheTimeout 120s
attr unit s
par SingleCell_withSecondaryGnb.server.ipv4.arp proxyArpInterfaces "\"\""
scalar SingleCell_withSecondaryGnb.server.ipv4.arp arpResolutionFailed:count 0
attr recordingmode count
attr title "ARP failed resolutions, count"
scalar SingleCell_withSecondaryGnb.server.ipv4.arp arpResolutionCompleted:count 0
attr recordingmode count
attr title "ARP completed resolutions, count"
scalar SingleCell_withSecondaryGnb.server.ipv4.arp arpResolutionInitiated:count 0
attr recordingmode count
attr title "ARP initiated resolutions, count"
scalar SingleCell_withSecondaryGnb.server.ipv4.arp arpReplySent:count 0
attr recordingmode count
attr source arpReplySent
attr title "ARP replies sent, count"
scalar SingleCell_withSecondaryGnb.server.ipv4.arp arpReplySent:sum(packetBytes) 0
attr recordingmode sum(packetBytes)
attr source arpReplySent
attr title "ARP replies sent, sum(packetBytes)"
scalar SingleCell_withSecondaryGnb.server.ipv4.arp arpRequestSent:count 0
attr recordingmode count
attr source arpRequestSent
attr title "ARP request sent, count"
scalar SingleCell_withSecondaryGnb.server.ipv4.arp arpRequestSent:sum(packetBytes) 0
attr recordingmode sum(packetBytes)
attr source arpRequestSent
attr title "ARP request sent, sum(packetBytes)"
par SingleCell_withSecondaryGnb.server.ipv4.lp typename "\"inet.common.MessageDispatcher\""
par SingleCell_withSecondaryGnb.server.ipv4.lp displayStringTextFormat "\"processed %p pk (%l)\""
par SingleCell_withSecondaryGnb.server.ipv4.lp forwardServiceRegistration true
par SingleCell_withSecondaryGnb.server.ipv4.lp forwardProtocolRegistration true
par SingleCell_withSecondaryGnb.server.ipv4 typename "\"inet.networklayer.ipv4.Ipv4NetworkLayer\""
par SingleCell_withSecondaryGnb.server.ipv4 forwarding false
par SingleCell_withSecondaryGnb.server.ipv4 multicastForwarding false
par SingleCell_withSecondaryGnb.server.ipv4 interfaceTableModule "\"SingleCell_withSecondaryGnb.server.interfaceTable\""
par SingleCell_withSecondaryGnb.server.ipv4 displayStringTextFormat "\"%i\""
par SingleCell_withSecondaryGnb.server.nl typename "\"inet.common.MessageDispatcher\""
par SingleCell_withSecondaryGnb.server.nl displayStringTextFormat "\"processed %p pk (%l)\""
par SingleCell_withSecondaryGnb.server.nl forwardServiceRegistration true
par SingleCell_withSecondaryGnb.server.nl forwardProtocolRegistration true
par SingleCell_withSecondaryGnb.server.udp typename "\"inet.transportlayer.udp.Udp\""
par SingleCell_withSecondaryGnb.server.udp interfaceTableModule "\"SingleCell_withSecondaryGnb.server.interfaceTable\""
par SingleCell_withSecondaryGnb.server.udp icmpModule "\"^.ipv4.icmp\""
par SingleCell_withSecondaryGnb.server.udp icmpv6Module "\"^.ipv6.icmpv6\""
par SingleCell_withSecondaryGnb.server.udp crcMode "\"declared\""
attr enum disabled,declared,computed
par SingleCell_withSecondaryGnb.server.udp defaultMulticastLoop true
scalar SingleCell_withSecondaryGnb.server.udp packetReceived:count 0
attr interpolationmode none
attr recordingmode count
attr source packetReceived
attr title "packets received, count"
scalar SingleCell_withSecondaryGnb.server.udp packetReceived:sum(packetBytes) 0
attr interpolationmode none
attr recordingmode sum(packetBytes)
attr source packetReceived
attr title "packets received, sum(packetBytes)"
scalar SingleCell_withSecondaryGnb.server.udp packetSent:count 0
attr interpolationmode none
attr recordingmode count
attr source packetSent
attr title "packets sent, count"
scalar SingleCell_withSecondaryGnb.server.udp packetSent:sum(packetBytes) 0
attr interpolationmode none
attr recordingmode sum(packetBytes)
attr source packetSent
attr title "packets sent, sum(packetBytes)"
scalar SingleCell_withSecondaryGnb.server.udp passedUpPk:count 0
attr interpolationmode none
attr recordingmode count
attr source packetSentToUpper
attr title "packets passed up, count"
scalar SingleCell_withSecondaryGnb.server.udp droppedPkWrongPort:count 0
attr interpolationmode none
attr recordingmode count
attr source packetDropReasonIsNoPortFound(packetDropped)
attr title "packets dropped (wrong port), count"
scalar SingleCell_withSecondaryGnb.server.udp droppedPkBadChecksum:count 0
attr interpolationmode none
attr recordingmode count
attr source packetDropReasonIsIncorrectlyReceived(packetDropped)
attr title "packets dropped (checksum error), count"
par SingleCell_withSecondaryGnb.server.tcp typename "\"inet.transportlayer.tcp.Tcp\""
par SingleCell_withSecondaryGnb.server.tcp crcMode "\"declared\""
attr enum declared,computed
par SingleCell_withSecondaryGnb.server.tcp advertisedWindow 7504
par SingleCell_withSecondaryGnb.server.tcp delayedAcksEnabled false
par SingleCell_withSecondaryGnb.server.tcp nagleEnabled true
par SingleCell_withSecondaryGnb.server.tcp limitedTransmitEnabled false
par SingleCell_withSecondaryGnb.server.tcp increasedIWEnabled false
par SingleCell_withSecondaryGnb.server.tcp sackSupport false
par SingleCell_withSecondaryGnb.server.tcp windowScalingSupport false
par SingleCell_withSecondaryGnb.server.tcp windowScalingFactor -1
par SingleCell_withSecondaryGnb.server.tcp timestampSupport false
par SingleCell_withSecondaryGnb.server.tcp mss 536
par SingleCell_withSecondaryGnb.server.tcp msl 120s
attr unit s
par SingleCell_withSecondaryGnb.server.tcp tcpAlgorithmClass "\"TcpReno\""
par SingleCell_withSecondaryGnb.server.tcp useDataNotification false
par SingleCell_withSecondaryGnb.server.tcp dupthresh 3
par SingleCell_withSecondaryGnb.server.tcp initialSsthresh 4294967295
par SingleCell_withSecondaryGnb.server.tcp stopOperationExtraTime 0s
attr unit s
par SingleCell_withSecondaryGnb.server.tcp stopOperationTimeout 2s
attr unit s
par SingleCell_withSecondaryGnb.server.tcp ecnWillingness false
par SingleCell_withSecondaryGnb.server.tcp dctcpGamma 0.0625
par SingleCell_withSecondaryGnb.server.tn typename "\"inet.common.MessageDispatcher\""
par SingleCell_withSecondaryGnb.server.tn displayStringTextFormat "\"processed %p pk (%l)\""
par SingleCell_withSecondaryGnb.server.tn forwardServiceRegistration true
par SingleCell_withSecondaryGnb.server.tn forwardProtocolRegistration true
par SingleCell_withSecondaryGnb.server.app[0] typename "\"simu5g.apps.voip.VoipSender\""
par SingleCell_withSecondaryGnb.server.app[0] localPort 3088
par SingleCell_withSecondaryGnb.server.app[0] destPort 3000
par SingleCell_withSecondaryGnb.server.app[0] destAddress "\"ue[0]\""
par SingleCell_withSecondaryGnb.server.app[0] packetSize 40B
attr unit B
par SingleCell_withSecondaryGnb.server.app[0] shapeTalk 0.824s
attr unit s
par SingleCell_withSecondaryGnb.server.app[0] scaleTalk 1.423s
attr unit s
par SingleCell_withSecondaryGnb.server.app[0] shapeSil 1.089s
attr unit s
par SingleCell_withSecondaryGnb.server.app[0] scaleSil 0.9s
attr unit s
par SingleCell_withSecondaryGnb.server.app[0] isTalk true
par SingleCell_withSecondaryGnb.server.app[0] samplingTime 0.02s
attr unit s
par SingleCell_withSecondaryGnb.server.app[0] startTime 0.0162304s
attr unit s
par SingleCell_withSecondaryGnb.server.app[0] silences true
par SingleCell_withSecondaryGnb.server.app[0] tos 20
scalar SingleCell_withSecondaryGnb.server.app[0] voIPGeneratedThroughput:mean -nan
attr recordingmode mean
attr source voIPGeneratedThroughput
attr title "Throughput generated by the application, mean"
attr unit Bps
par SingleCell_withSecondaryGnb.server.at typename "\"inet.common.MessageDispatcher\""
par SingleCell_withSecondaryGnb.server.at displayStringTextFormat "\"processed %p pk (%l)\""
par SingleCell_withSecondaryGnb.server.at forwardServiceRegistration true
par SingleCell_withSecondaryGnb.server.at forwardProtocolRegistration true
par SingleCell_withSecondaryGnb.server typename "\"inet.node.inet.StandardHost\""
par SingleCell_withSecondaryGnb.server hasStatus false
par SingleCell_withSecondaryGnb.server osgModel "\"\""
par SingleCell_withSecondaryGnb.server osgModelColor "\"\""
par SingleCell_withSecondaryGnb.server canvasImage "\"\""
par SingleCell_withSecondaryGnb.server canvasImageColor "\"\""
par SingleCell_withSecondaryGnb.server recordPcap false
par SingleCell_withSecondaryGnb.server numPcapRecorders 0
par SingleCell_withSecondaryGnb.server numLoInterfaces 1
par SingleCell_withSecondaryGnb.server numWlanInterfaces 0
par SingleCell_withSecondaryGnb.server numEthInterfaces 0
par SingleCell_withSecondaryGnb.server numPppInterfaces 0
par SingleCell_withSecondaryGnb.server numTunInterfaces 0
par SingleCell_withSecondaryGnb.server numVirtInterfaces 0
par SingleCell_withSecondaryGnb.server fcsMode "\"declared\""
attr enum declared,computed
par SingleCell_withSecondaryGnb.server hasIpv4 true
par SingleCell_withSecondaryGnb.server hasIpv6 false
par SingleCell_withSecondaryGnb.server hasGn false
par SingleCell_withSecondaryGnb.server forwarding false
par SingleCell_withSecondaryGnb.server multicastForwarding false
par SingleCell_withSecondaryGnb.server hasUdp true
par SingleCell_withSecondaryGnb.server hasTcp true
par SingleCell_withSecondaryGnb.server hasSctp false
par SingleCell_withSecondaryGnb.server numApps 1
par SingleCell_withSecondaryGnb.router.pppg$i[0].channel typename "\"ned.IdealChannel\""
par SingleCell_withSecondaryGnb.router.ppp[0].phys$o.channel typename "\"ned.IdealChannel\""
par SingleCell_withSecondaryGnb.router.pppg$i[1].channel typename "\"ned.IdealChannel\""
par SingleCell_withSecondaryGnb.router.ppp[1].phys$o.channel typename "\"ned.IdealChannel\""
par SingleCell_withSecondaryGnb.router.interfaceTable typename "\"inet.networklayer.common.InterfaceTable\""
par SingleCell_withSecondaryGnb.router.interfaceTable displayAddresses false
par SingleCell_withSecondaryGnb.router.cb typename "\"inet.common.MessageDispatcher\""
par SingleCell_withSecondaryGnb.router.cb displayStringTextFormat "\"processed %p pk (%l)\""
par SingleCell_withSecondaryGnb.router.cb forwardServiceRegistration true
par SingleCell_withSecondaryGnb.router.cb forwardProtocolRegistration true
par SingleCell_withSecondaryGnb.router.bl typename "\"inet.common.MessageDispatcher\""
par SingleCell_withSecondaryGnb.router.bl displayStringTextFormat "\"processed %p pk (%l)\""
par SingleCell_withSecondaryGnb.router.bl forwardServiceRegistration true
par SingleCell_withSecondaryGnb.router.bl forwardProtocolRegistration true
par SingleCell_withSecondaryGnb.router.li typename "\"inet.common.MessageDispatcher\""
par SingleCell_withSecondaryGnb.router.li displayStringTextFormat "\"processed %p pk (%l)\""
par SingleCell_withSecondaryGnb.router.li forwardServiceRegistration true
par SingleCell_withSecondaryGnb.router.li forwardProtocolRegistration true
par SingleCell_withSecondaryGnb.router.lo[0].upperLayerIn.channel typename "\"ned.IdealChannel\""
par SingleCell_withSecondaryGnb.router.lo[0].lo.upperLayerOut.channel typename "\"ned.IdealChannel\""
par SingleCell_withSecondaryGnb.router.lo[0].lo typename "\"inet.linklayer.loopback.Loopback\""
par SingleCell_withSecondaryGnb.router.lo[0].lo interfaceTableModule "\"SingleCell_withSecondaryGnb.router.interfaceTable\""
par SingleCell_withSecondaryGnb.router.lo[0].lo mtu 4470B
attr unit B
scalar SingleCell_withSecondaryGnb.router.lo[0].lo rcvdPkFromHl:count 0
attr interpolationmode none
attr recordingmode count
attr source packetReceivedFromUpper
attr title "packets received from higher layer, count"
scalar SingleCell_withSecondaryGnb.router.lo[0].lo rcvdPkFromHl:sum(packetBytes) 0
attr interpolationmode none
attr recordingmode sum(packetBytes)
attr source packetReceivedFromUpper
attr title "packets received from higher layer, sum(packetBytes)"
scalar SingleCell_withSecondaryGnb.router.lo[0].lo passedUpPk:count 0
attr interpolationmode none
attr recordingmode count
attr source packetSentToUpper
attr title "packets passed to higher layer, count"
scalar SingleCell_withSecondaryGnb.router.lo[0].lo passedUpPk:sum(packetBytes) 0
attr interpolationmode none
attr recordingmode sum(packetBytes)
attr source packetSentToUpper
attr title "packets passed to higher layer, sum(packetBytes)"
par SingleCell_withSecondaryGnb.router.lo[0] typename "\"inet.linklayer.loopback.LoopbackInterface\""
par SingleCell_withSecondaryGnb.router.lo[0] displayStringTextFormat "\"%a (%i)\\n%m\""
par SingleCell_withSecondaryGnb.router.lo[0] recordPcap false
par SingleCell_withSecondaryGnb.router.lo[0] numPcapRecorders 0
par SingleCell_withSecondaryGnb.router.lo[0] interfaceTableModule "\"SingleCell_withSecondaryGnb.router.interfaceTable\""
scalar SingleCell_withSecondaryGnb.router.lo[0] packetDropInterfaceDown:count 0
attr interpolationmode none
attr recordingmode count
attr source packetDropReasonIsInterfaceDown(packetDropped)
attr title "packet drops: interface down, count"
scalar SingleCell_withSecondaryGnb.router.lo[0] packetDropInterfaceDown:sum(packetBytes) 0
attr interpolationmode none
attr recordingmode sum(packetBytes)
attr source packetDropReasonIsInterfaceDown(packetDropped)
attr title "packet drops: interface down, sum(packetBytes)"
scalar SingleCell_withSecondaryGnb.router.lo[0] packetDropNoCarrier:count 0
attr interpolationmode none
attr recordingmode count
attr source packetDropReasonIsNoCarrier(packetDropped)
attr title "packet drops: no carrier, count"
scalar SingleCell_withSecondaryGnb.router.lo[0] packetDropNoCarrier:sum(packetBytes) 0
attr interpolationmode none
attr recordingmode sum(packetBytes)
attr source packetDropReasonIsNoCarrier(packetDropped)
attr title "packet drops: no carrier, sum(packetBytes)"
par SingleCell_withSecondaryGnb.router.ppp[0].phys$i.channel typename "\"ned.IdealChannel\""
par SingleCell_withSecondaryGnb.router.ppp[0].ppp.phys$o.channel typename "\"ned.IdealChannel\""
par SingleCell_withSecondaryGnb.router.ppp[0].ppp.upperLayerOut.channel typename "\"ned.IdealChannel\""
par SingleCell_withSecondaryGnb.router.ppp[0].upperLayerIn.channel typename "\"ned.IdealChannel\""
par SingleCell_withSecondaryGnb.router.ppp[0].queue typename "\"inet.queueing.queue.DropTailQueue\""
par SingleCell_withSecondaryGnb.router.ppp[0].queue displayStringTextFormat "\"contains %p pk (%l) pushed %u\\npulled %o removed %r dropped %d\""
par SingleCell_withSecondaryGnb.router.ppp[0].queue packetCapacity 10000
par SingleCell_withSecondaryGnb.router.ppp[0].queue dataCapacity -1b
attr unit b
par SingleCell_withSecondaryGnb.router.ppp[0].queue dropperClass "\"inet::queueing::PacketAtCollectionEndDropper\""
par SingleCell_withSecondaryGnb.router.ppp[0].queue comparatorClass "\"\""
par SingleCell_withSecondaryGnb.router.ppp[0].queue bufferModule "\"\""
scalar SingleCell_withSecondaryGnb.router.ppp[0].queue queueLength:last 0
attr autoWarmupFilter false
attr interpolationmode sample-hold
attr recordingmode last
attr source "warmup(atomic(constant0(packetPushEnded) + count(packetPushStarted) - count(packetPulled) - count(packetRemoved) - count(packetDropped)))"
attr title "queue length, last"
attr unit pk
scalar SingleCell_withSecondaryGnb.router.ppp[0].queue queueLength:max 0
attr autoWarmupFilter false
attr interpolationmode sample-hold
attr recordingmode max
attr source "warmup(atomic(constant0(packetPushEnded) + count(packetPushStarted) - count(packetPulled) - count(packetRemoved) - count(packetDropped)))"
attr title "queue length, max"
attr unit pk
scalar SingleCell_withSecondaryGnb.router.ppp[0].queue queueLength:timeavg 0
attr autoWarmupFilter false
attr interpolationmode sample-hold
attr recordingmode timeavg
attr source "warmup(atomic(constant0(packetPushEnded) + count(packetPushStarted) - count(packetPulled) - count(packetRemoved) - count(packetDropped)))"
attr title "queue length, timeavg"
attr unit pk
scalar SingleCell_withSecondaryGnb.router.ppp[0].queue queueBitLength:last 0
attr autoWarmupFilter false
attr interpolationmode sample-hold
attr recordingmode last
attr source "warmup(atomic(constant0(packetPushEnded) + sum(packetLength(packetPushStarted)) - sum(packetLength(packetPulled)) - sum(packetLength(packetRemoved)) - sum(packetLength(packetDropped))))"
attr title "queue bit length, last"
attr unit b
scalar SingleCell_withSecondaryGnb.router.ppp[0].queue queueBitLength:max 0
attr autoWarmupFilter false
attr interpolationmode sample-hold
attr recordingmode max
attr source "warmup(atomic(constant0(packetPushEnded) + sum(packetLength(packetPushStarted)) - sum(packetLength(packetPulled)) - sum(packetLength(packetRemoved)) - sum(packetLength(packetDropped))))"
attr title "queue bit length, max"
attr unit b
scalar SingleCell_withSecondaryGnb.router.ppp[0].queue queueBitLength:timeavg 0
attr autoWarmupFilter false
attr interpolationmode sample-hold
attr recordingmode timeavg
attr source "warmup(atomic(constant0(packetPushEnded) + sum(packetLength(packetPushStarted)) - sum(packetLength(packetPulled)) - sum(packetLength(packetRemoved)) - sum(packetLength(packetDropped))))"
attr title "queue bit length, timeavg"
attr unit b
statistic SingleCell_withSecondaryGnb.router.ppp[0].queue queueingTime:histogram
field count 0
field mean -nan
field stddev nan
field min nan
field max nan
field sum 0
field sqrsum 0
attr interpolationmode none
attr recordingmode histogram
attr source queueingTime(packetPulled)
attr title "queueing times"
attr unit s
bin	-inf	0
bin	0	0
bin	1	0
scalar SingleCell_withSecondaryGnb.router.ppp[0].queue outgoingPackets:count 0
attr recordingmode count
attr source packetPulled
attr title "outgoing packets, count"
attr unit pk
scalar SingleCell_withSecondaryGnb.router.ppp[0].queue outgoingPacketLengths:sum 0
attr interpolationmode none
attr recordingmode sum
attr source packetLength(packetPulled)
attr title "outgoing packet lengths, sum"
attr unit b
statistic SingleCell_withSecondaryGnb.router.ppp[0].queue outgoingPacketLengths:histogram
field count 0
field mean -nan
field stddev nan
field min nan
field max nan
field sum 0
field sqrsum 0
attr interpolationmode none
attr recordingmode histogram
attr source packetLength(packetPulled)
attr title "outgoing packet lengths"
attr unit b
bin	-inf	0
bin	0	0
bin	1	0
statistic SingleCell_withSecondaryGnb.router.ppp[0].queue flowQueueingTime:histogram
field count 0
field mean -nan
field stddev nan
field min nan
field max nan
field sum 0
field sqrsum 0
attr interpolationmode none
attr recordingmode histogram
attr source queueingTime(demuxFlow(packetPulled))
attr title "flow queueing times"
attr unit s
bin	-inf	0
bin	0	0
bin	1	0
scalar SingleCell_withSecondaryGnb.router.ppp[0].queue incomingPackets:count 0
attr recordingmode count
attr source packetPushStarted
attr title "incoming packets, count"
attr unit pk
scalar SingleCell_withSecondaryGnb.router.ppp[0].queue incomingPacketLengths:sum 0
attr interpolationmode none
attr recordingmode sum
attr source packetLength(packetPushStarted)
attr title "incoming packet lengths, sum"
attr unit b
statistic SingleCell_withSecondaryGnb.router.ppp[0].queue incomingPacketLengths:histogram
field count 0
field mean -nan
field stddev nan
field min nan
field max nan
field sum 0
field sqrsum 0
attr interpolationmode none
attr recordingmode histogram
attr source packetLength(packetPushStarted)
attr title "incoming packet lengths"
attr unit b
bin	-inf	0
bin	0	0
bin	1	0
scalar SingleCell_withSecondaryGnb.router.ppp[0].queue droppedPacketsQueueOverflow:count 0
attr interpolationmode none
attr recordingmode count
attr source packetDropReasonIsQueueOverflow(packetDropped)
attr title "dropped packets: queue overflow, count"
attr unit pk
scalar SingleCell_withSecondaryGnb.router.ppp[0].queue droppedPacketLengthsQueueOverflow:sum 0
attr interpolationmode none
attr recordingmode sum
attr source packetLength(packetDropReasonIsQueueOverflow(packetDropped))
attr title "dropped packet lengths: queue overflow, sum"
attr unit b
par SingleCell_withSecondaryGnb.router.ppp[0].ppp typename "\"inet.linklayer.ppp.Ppp\""
par SingleCell_withSecondaryGnb.router.ppp[0].ppp interfaceTableModule "\"SingleCell_withSecondaryGnb.router.interfaceTable\""
par SingleCell_withSecondaryGnb.router.ppp[0].ppp displayStringTextFormat "\"rate: %b\\nsent: %s, rcvd: %r\\nqueue: %q, drop: %d\""
par SingleCell_withSecondaryGnb.router.ppp[0].ppp sendRawBytes false
par SingleCell_withSecondaryGnb.router.ppp[0].ppp mtu 4470B
attr unit B
par SingleCell_withSecondaryGnb.router.ppp[0].ppp stopOperationExtraTime -1s
attr unit s
par SingleCell_withSecondaryGnb.router.ppp[0].ppp stopOperationTimeout 2s
attr unit s
scalar SingleCell_withSecondaryGnb.router.ppp[0].ppp transmissionState:timeavg 0
attr interpolationmode sample-hold
attr recordingmode timeavg
attr source transmissionStateChanged
attr title "tx state, timeavg"
scalar SingleCell_withSecondaryGnb.router.ppp[0].ppp rxPkOk:count 0
attr interpolationmode none
attr recordingmode count
attr source rxPkOk
attr title "packets received OK, count"
scalar SingleCell_withSecondaryGnb.router.ppp[0].ppp rxPkOk:sum(packetBytes) 0
attr interpolationmode none
attr recordingmode sum(packetBytes)
attr source rxPkOk
attr title "packets received OK, sum(packetBytes)"
scalar SingleCell_withSecondaryGnb.router.ppp[0].ppp txPk:count 0
attr interpolationmode none
attr recordingmode count
attr source packetSentToLower
attr title "packets transmitted, count"
scalar SingleCell_withSecondaryGnb.router.ppp[0].ppp txPk:sum(packetBytes) 0
attr interpolationmode none
attr recordingmode sum(packetBytes)
attr source packetSentToLower
attr title "packets transmitted, sum(packetBytes)"
scalar SingleCell_withSecondaryGnb.router.ppp[0].ppp rcvdPkFromHl:count 0
attr interpolationmode none
attr recordingmode count
attr source packetReceivedFromUpper
attr title "packets received from higher layer, count"
scalar SingleCell_withSecondaryGnb.router.ppp[0].ppp rcvdPkFromHl:sum(packetBytes) 0
attr interpolationmode none
attr recordingmode sum(packetBytes)
attr source packetReceivedFromUpper
attr title "packets received from higher layer, sum(packetBytes)"
scalar SingleCell_withSecondaryGnb.router.ppp[0].ppp passedUpPk:count 0
attr interpolationmode none
attr recordingmode count
attr source packetSentToUpper
attr title "packets passed to higher layer, count"
scalar SingleCell_withSecondaryGnb.router.ppp[0].ppp passedUpPk:sum(packetBytes) 0
attr interpolationmode none
attr recordingmode sum(packetBytes)
attr source packetSentToUpper
attr title "packets passed to higher layer, sum(packetBytes)"
scalar SingleCell_withSecondaryGnb.router.ppp[0].ppp packetDropIncorrectlyReceived:count 0
attr interpolationmode none
attr recordingmode count
attr source packetDropReasonIsIncorrectlyReceived(packetDropped)
attr title "packet drop: incorrectly received, count"
scalar SingleCell_withSecondaryGnb.router.ppp[0].ppp packetDropIncorrectlyReceived:sum(packetBytes) 0
attr interpolationmode none
attr recordingmode sum(packetBytes)
attr source packetDropReasonIsIncorrectlyReceived(packetDropped)
attr title "packet drop: incorrectly received, sum(packetBytes)"
scalar SingleCell_withSecondaryGnb.router.ppp[0].ppp packetDropInterfaceDown:count 0
attr interpolationmode none
attr recordingmode count
attr source packetDropReasonIsInterfaceDown(packetDropped)
attr title "packet drop: interface down, count"
scalar SingleCell_withSecondaryGnb.router.ppp[0].ppp packetDropInterfaceDown:sum(packetBytes) 0
attr interpolationmode none
attr recordingmode sum(packetBytes)
attr source packetDropReasonIsInterfaceDown(packetDropped)
attr title "packet drop: interface down, sum(packetBytes)"
par SingleCell_withSecondaryGnb.router.ppp[0] typename "\"inet.linklayer.ppp.PppInterface\""
par SingleCell_withSecondaryGnb.router.ppp[0] displayStringTextFormat "\"%a (%i)\\n%m\""
par SingleCell_withSecondaryGnb.router.ppp[0] recordPcap false
par SingleCell_withSecondaryGnb.router.ppp[0] numPcapRecorders 0
par SingleCell_withSecondaryGnb.router.ppp[0] interfaceTableModule "\"SingleCell_withSecondaryGnb.router.interfaceTable\""
scalar SingleCell_withSecondaryGnb.router.ppp[0] packetDropInterfaceDown:count 0
attr interpolationmode none
attr recordingmode count
attr source packetDropReasonIsInterfaceDown(packetDropped)
attr title "packet drops: interface down, count"
scalar SingleCell_withSecondaryGnb.router.ppp[0] packetDropInterfaceDown:sum(packetBytes) 0
attr interpolationmode none
attr recordingmode sum(packetBytes)
attr source packetDropReasonIsInterfaceDown(packetDropped)
attr title "packet drops: interface down, sum(packetBytes)"
scalar SingleCell_withSecondaryGnb.router.ppp[0] packetDropNoCarrier:count 0
attr interpolationmode none
attr recordingmode count
attr source packetDropReasonIsNoCarrier(packetDropped)
attr title "packet drops: no carrier, count"
scalar SingleCell_withSecondaryGnb.router.ppp[0] packetDropNoCarrier:sum(packetBytes) 0
attr interpolationmode none
attr recordingmode sum(packetBytes)
attr source packetDropReasonIsNoCarrier(packetDropped)
attr title "packet drops: no carrier, sum(packetBytes)"
par SingleCell_withSecondaryGnb.router.ppp[1].phys$i.channel typename "\"ned.IdealChannel\""
par SingleCell_withSecondaryGnb.router.ppp[1].ppp.phys$o.channel typename "\"ned.IdealChannel\""
par SingleCell_withSecondaryGnb.router.ppp[1].ppp.upperLayerOut.channel typename "\"ned.IdealChannel\""
par SingleCell_withSecondaryGnb.router.ppp[1].upperLayerIn.channel typename "\"ned.IdealChannel\""
par SingleCell_withSecondaryGnb.router.ppp[1].queue typename "\"inet.queueing.queue.DropTailQueue\""
par SingleCell_withSecondaryGnb.router.ppp[1].queue displayStringTextFormat "\"contains %p pk (%l) pushed %u\\npulled %o removed %r dropped %d\""
par SingleCell_withSecondaryGnb.router.ppp[1].queue packetCapacity 10000
par SingleCell_withSecondaryGnb.router.ppp[1].queue dataCapacity -1b
attr unit b
par SingleCell_withSecondaryGnb.router.ppp[1].queue dropperClass "\"inet::queueing::PacketAtCollectionEndDropper\""
par SingleCell_withSecondaryGnb.router.ppp[1].queue comparatorClass "\"\""
par SingleCell_withSecondaryGnb.router.ppp[1].queue bufferModule "\"\""
scalar SingleCell_withSecondaryGnb.router.ppp[1].queue queueLength:last 0
attr autoWarmupFilter false
attr interpolationmode sample-hold
attr recordingmode last
attr source "warmup(atomic(constant0(packetPushEnded) + count(packetPushStarted) - count(packetPulled) - count(packetRemoved) - count(packetDropped)))"
attr title "queue length, last"
attr unit pk
scalar SingleCell_withSecondaryGnb.router.ppp[1].queue queueLength:max 0
attr autoWarmupFilter false
attr interpolationmode sample-hold
attr recordingmode max
attr source "warmup(atomic(constant0(packetPushEnded) + count(packetPushStarted) - count(packetPulled) - count(packetRemoved) - count(packetDropped)))"
attr title "queue length, max"
attr unit pk
scalar SingleCell_withSecondaryGnb.router.ppp[1].queue queueLength:timeavg 0
attr autoWarmupFilter false
attr interpolationmode sample-hold
attr recordingmode timeavg
attr source "warmup(atomic(constant0(packetPushEnded) + count(packetPushStarted) - count(packetPulled) - count(packetRemoved) - count(packetDropped)))"
attr title "queue length, timeavg"
attr unit pk
scalar SingleCell_withSecondaryGnb.router.ppp[1].queue queueBitLength:last 0
attr autoWarmupFilter false
attr interpolationmode sample-hold
attr recordingmode last
attr source "warmup(atomic(constant0(packetPushEnded) + sum(packetLength(packetPushStarted)) - sum(packetLength(packetPulled)) - sum(packetLength(packetRemoved)) - sum(packetLength(packetDropped))))"
attr title "queue bit length, last"
attr unit b
scalar SingleCell_withSecondaryGnb.router.ppp[1].queue queueBitLength:max 0
attr autoWarmupFilter false
attr interpolationmode sample-hold
attr recordingmode max
attr source "warmup(atomic(constant0(packetPushEnded) + sum(packetLength(packetPushStarted)) - sum(packetLength(packetPulled)) - sum(packetLength(packetRemoved)) - sum(packetLength(packetDropped))))"
attr title "queue bit length, max"
attr unit b
scalar SingleCell_withSecondaryGnb.router.ppp[1].queue queueBitLength:timeavg 0
attr autoWarmupFilter false
attr interpolationmode sample-hold
attr recordingmode timeavg
attr source "warmup(atomic(constant0(packetPushEnded) + sum(packetLength(packetPushStarted)) - sum(packetLength(packetPulled)) - sum(packetLength(packetRemoved)) - sum(packetLength(packetDropped))))"
attr title "queue bit length, timeavg"
attr unit b
statistic SingleCell_withSecondaryGnb.router.ppp[1].queue queueingTime:histogram
field count 0
field mean -nan
field stddev nan
field min nan
field max nan
field sum 0
field sqrsum 0
attr interpolationmode none
attr recordingmode histogram
attr source queueingTime(packetPulled)
attr title "queueing times"
attr unit s
bin	-inf	0
bin	0	0
bin	1	0
scalar SingleCell_withSecondaryGnb.router.ppp[1].queue outgoingPackets:count 0
attr recordingmode count
attr source packetPulled
attr title "outgoing packets, count"
attr unit pk
scalar SingleCell_withSecondaryGnb.router.ppp[1].queue outgoingPacketLengths:sum 0
attr interpolationmode none
attr recordingmode sum
attr source packetLength(packetPulled)
attr title "outgoing packet lengths, sum"
attr unit b
statistic SingleCell_withSecondaryGnb.router.ppp[1].queue outgoingPacketLengths:histogram
field count 0
field mean -nan
field stddev nan
field min nan
field max nan
field sum 0
field sqrsum 0
attr interpolationmode none
attr recordingmode histogram
attr source packetLength(packetPulled)
attr title "outgoing packet lengths"
attr unit b
bin	-inf	0
bin	0	0
bin	1	0
statistic SingleCell_withSecondaryGnb.router.ppp[1].queue flowQueueingTime:histogram
field count 0
field mean -nan
field stddev nan
field min nan
field max nan
field sum 0
field sqrsum 0
attr interpolationmode none
attr recordingmode histogram
attr source queueingTime(demuxFlow(packetPulled))
attr title "flow queueing times"
attr unit s
bin	-inf	0
bin	0	0
bin	1	0
scalar SingleCell_withSecondaryGnb.router.ppp[1].queue incomingPackets:count 0
attr recordingmode count
attr source packetPushStarted
attr title "incoming packets, count"
attr unit pk
scalar SingleCell_withSecondaryGnb.router.ppp[1].queue incomingPacketLengths:sum 0
attr interpolationmode none
attr recordingmode sum
attr source packetLength(packetPushStarted)
attr title "incoming packet lengths, sum"
attr unit b
statistic SingleCell_withSecondaryGnb.router.ppp[1].queue incomingPacketLengths:histogram
field count 0
field mean -nan
field stddev nan
field min nan
field max nan
field sum 0
field sqrsum 0
attr interpolationmode none
attr recordingmode histogram
attr source packetLength(packetPushStarted)
attr title "incoming packet lengths"
attr unit b
bin	-inf	0
bin	0	0
bin	1	0
scalar SingleCell_withSecondaryGnb.router.ppp[1].queue droppedPacketsQueueOverflow:count 0
attr interpolationmode none
attr recordingmode count
attr source packetDropReasonIsQueueOverflow(packetDropped)
attr title "dropped packets: queue overflow, count"
attr unit pk
scalar SingleCell_withSecondaryGnb.router.ppp[1].queue droppedPacketLengthsQueueOverflow:sum 0
attr interpolationmode none
attr recordingmode sum
attr source packetLength(packetDropReasonIsQueueOverflow(packetDropped))
attr title "dropped packet lengths: queue overflow, sum"
attr unit b
par SingleCell_withSecondaryGnb.router.ppp[1].ppp typename "\"inet.linklayer.ppp.Ppp\""
par SingleCell_withSecondaryGnb.router.ppp[1].ppp interfaceTableModule "\"SingleCell_withSecondaryGnb.router.interfaceTable\""
par SingleCell_withSecondaryGnb.router.ppp[1].ppp displayStringTextFormat "\"rate: %b\\nsent: %s, rcvd: %r\\nqueue: %q, drop: %d\""
par SingleCell_withSecondaryGnb.router.ppp[1].ppp sendRawBytes false
par SingleCell_withSecondaryGnb.router.ppp[1].ppp mtu 4470B
attr unit B
par SingleCell_withSecondaryGnb.router.ppp[1].ppp stopOperationExtraTime -1s
attr unit s
par SingleCell_withSecondaryGnb.router.ppp[1].ppp stopOperationTimeout 2s
attr unit s
scalar SingleCell_withSecondaryGnb.router.ppp[1].ppp transmissionState:timeavg 0
attr interpolationmode sample-hold
attr recordingmode timeavg
attr source transmissionStateChanged
attr title "tx state, timeavg"
scalar SingleCell_withSecondaryGnb.router.ppp[1].ppp rxPkOk:count 0
attr interpolationmode none
attr recordingmode count
attr source rxPkOk
attr title "packets received OK, count"
scalar SingleCell_withSecondaryGnb.router.ppp[1].ppp rxPkOk:sum(packetBytes) 0
attr interpolationmode none
attr recordingmode sum(packetBytes)
attr source rxPkOk
attr title "packets received OK, sum(packetBytes)"
scalar SingleCell_withSecondaryGnb.router.ppp[1].ppp txPk:count 0
attr interpolationmode none
attr recordingmode count
attr source packetSentToLower
attr title "packets transmitted, count"
scalar SingleCell_withSecondaryGnb.router.ppp[1].ppp txPk:sum(packetBytes) 0
attr interpolationmode none
attr recordingmode sum(packetBytes)
attr source packetSentToLower
attr title "packets transmitted, sum(packetBytes)"
scalar SingleCell_withSecondaryGnb.router.ppp[1].ppp rcvdPkFromHl:count 0
attr interpolationmode none
attr recordingmode count
attr source packetReceivedFromUpper
attr title "packets received from higher layer, count"
scalar SingleCell_withSecondaryGnb.router.ppp[1].ppp rcvdPkFromHl:sum(packetBytes) 0
attr interpolationmode none
attr recordingmode sum(packetBytes)
attr source packetReceivedFromUpper
attr title "packets received from higher layer, sum(packetBytes)"
scalar SingleCell_withSecondaryGnb.router.ppp[1].ppp passedUpPk:count 0
attr interpolationmode none
attr recordingmode count
attr source packetSentToUpper
attr title "packets passed to higher layer, count"
scalar SingleCell_withSecondaryGnb.router.ppp[1].ppp passedUpPk:sum(packetBytes) 0
attr interpolationmode none
attr recordingmode sum(packetBytes)
attr source packetSentToUpper
attr title "packets passed to higher layer, sum(packetBytes)"
scalar SingleCell_withSecondaryGnb.router.ppp[1].ppp packetDropIncorrectlyReceived:count 0
attr interpolationmode none
attr recordingmode count
attr source packetDropReasonIsIncorrectlyReceived(packetDropped)
attr title "packet drop: incorrectly received, count"
scalar SingleCell_withSecondaryGnb.router.ppp[1].ppp packetDropIncorrectlyReceived:sum(packetBytes) 0
attr interpolationmode none
attr recordingmode sum(packetBytes)
attr source packetDropReasonIsIncorrectlyReceived(packetDropped)
attr title "packet drop: incorrectly received, sum(packetBytes)"
scalar SingleCell_withSecondaryGnb.router.ppp[1].ppp packetDropInterfaceDown:count 0
attr interpolationmode none
attr recordingmode count
attr source packetDropReasonIsInterfaceDown(packetDropped)
attr title "packet drop: interface down, count"
scalar SingleCell_withSecondaryGnb.router.ppp[1].ppp packetDropInterfaceDown:sum(packetBytes) 0
attr interpolationmode none
attr recordingmode sum(packetBytes)
attr source packetDropReasonIsInterfaceDown(packetDropped)
attr title "packet drop: interface down, sum(packetBytes)"
par SingleCell_withSecondaryGnb.router.ppp[1] typename "\"inet.linklayer.ppp.PppInterface\""
par SingleCell_withSecondaryGnb.router.ppp[1] displayStringTextFormat "\"%a (%i)\\n%m\""
par SingleCell_withSecondaryGnb.router.ppp[1] recordPcap false
par SingleCell_withSecondaryGnb.router.ppp[1] numPcapRecorders 0
par SingleCell_withSecondaryGnb.router.ppp[1] interfaceTableModule "\"SingleCell_withSecondaryGnb.router.interfaceTable\""
scalar SingleCell_withSecondaryGnb.router.ppp[1] packetDropInterfaceDown:count 0
attr interpolationmode none
attr recordingmode count
attr source packetDropReasonIsInterfaceDown(packetDropped)
attr title "packet drops: interface down, count"
scalar SingleCell_withSecondaryGnb.router.ppp[1] packetDropInterfaceDown:sum(packetBytes) 0
attr interpolationmode none
attr recordingmode sum(packetBytes)
attr source packetDropReasonIsInterfaceDown(packetDropped)
attr title "packet drops: interface down, sum(packetBytes)"
scalar SingleCell_withSecondaryGnb.router.ppp[1] packetDropNoCarrier:count 0
attr interpolationmode none
attr recordingmode count
attr source packetDropReasonIsNoCarrier(packetDropped)
attr title "packet drops: no carrier, count"
scalar SingleCell_withSecondaryGnb.router.ppp[1] packetDropNoCarrier:sum(packetBytes) 0
attr interpolationmode none
attr recordingmode sum(packetBytes)
attr source packetDropReasonIsNoCarrier(packetDropped)
attr title "packet drops: no carrier, sum(packetBytes)"
par SingleCell_withSecondaryGnb.router.ipv4.transportIn.channel typename "\"ned.IdealChannel\""
par SingleCell_withSecondaryGnb.router.ipv4.up.out[0].channel typename "\"ned.IdealChannel\""
par SingleCell_withSecondaryGnb.router.ipv4.lp.out[2].channel typename "\"ned.IdealChannel\""
par SingleCell_withSecondaryGnb.router.ipv4.ifIn.channel typename "\"ned.IdealChannel\""
par SingleCell_withSecondaryGnb.router.ipv4.configurator typename "\"inet.networklayer.configurator.ipv4.Ipv4NodeConfigurator\""
par SingleCell_withSecondaryGnb.router.ipv4.configurator interfaceTableModule "\"SingleCell_withSecondaryGnb.router.interfaceTable\""
par SingleCell_withSecondaryGnb.router.ipv4.configurator routingTableModule "\"SingleCell_withSecondaryGnb.router.ipv4.routingTable\""
par SingleCell_withSecondaryGnb.router.ipv4.configurator networkConfiguratorModule "\"configurator\""
par SingleCell_withSecondaryGnb.router.ipv4.configurator configureRoutingTable true
par SingleCell_withSecondaryGnb.router.ipv4.routingTable typename "\"inet.networklayer.ipv4.Ipv4RoutingTable\""
par SingleCell_withSecondaryGnb.router.ipv4.routingTable interfaceTableModule "\"SingleCell_withSecondaryGnb.router.interfaceTable\""
par SingleCell_withSecondaryGnb.router.ipv4.routingTable routerId "\"auto\""
par SingleCell_withSecondaryGnb.router.ipv4.routingTable netmaskRoutes "\"*\""
par SingleCell_withSecondaryGnb.router.ipv4.routingTable forwarding true
par SingleCell_withSecondaryGnb.router.ipv4.routingTable multicastForwarding false
par SingleCell_withSecondaryGnb.router.ipv4.routingTable useAdminDist false
par SingleCell_withSecondaryGnb.router.ipv4.routingTable routingFile "\"\""
par SingleCell_withSecondaryGnb.router.ipv4.natTable typename "\"inet.networklayer.ipv4.Ipv4NatTable\""
par SingleCell_withSecondaryGnb.router.ipv4.natTable networkProtocolModule "\"^.ip\""
par SingleCell_withSecondaryGnb.router.ipv4.natTable config "<config/> at content:1"
par SingleCell_withSecondaryGnb.router.ipv4.up typename "\"inet.common.MessageDispatcher\""
par SingleCell_withSecondaryGnb.router.ipv4.up displayStringTextFormat "\"processed %p pk (%l)\""
par SingleCell_withSecondaryGnb.router.ipv4.up forwardServiceRegistration true
par SingleCell_withSecondaryGnb.router.ipv4.up forwardProtocolRegistration true
par SingleCell_withSecondaryGnb.router.ipv4.igmp typename "\"inet.networklayer.ipv4.Igmpv2\""
par SingleCell_withSecondaryGnb.router.ipv4.igmp interfaceTableModule "\"SingleCell_withSecondaryGnb.router.interfaceTable\""
par SingleCell_withSecondaryGnb.router.ipv4.igmp routingTableModule "\"SingleCell_withSecondaryGnb.router.ipv4.routingTable\""
par SingleCell_withSecondaryGnb.router.ipv4.igmp crcMode "\"declared\""
attr enum declared,computed
par SingleCell_withSecondaryGnb.router.ipv4.igmp enabled true
par SingleCell_withSecondaryGnb.router.ipv4.igmp robustnessVariable 2
par SingleCell_withSecondaryGnb.router.ipv4.igmp queryInterval 125s
attr unit s
par SingleCell_withSecondaryGnb.router.ipv4.igmp queryResponseInterval 10s
attr unit s
par SingleCell_withSecondaryGnb.router.ipv4.igmp groupMembershipInterval 260s
attr unit s
par SingleCell_withSecondaryGnb.router.ipv4.igmp otherQuerierPresentInterval 255s
attr unit s
par SingleCell_withSecondaryGnb.router.ipv4.igmp startupQueryInterval 31.25s
attr unit s
par SingleCell_withSecondaryGnb.router.ipv4.igmp startupQueryCount 2
par SingleCell_withSecondaryGnb.router.ipv4.igmp lastMemberQueryInterval 1s
attr unit s
par SingleCell_withSecondaryGnb.router.ipv4.igmp lastMemberQueryCount 2
par SingleCell_withSecondaryGnb.router.ipv4.igmp unsolicitedReportInterval 10s
attr unit s
par SingleCell_withSecondaryGnb.router.ipv4.icmp typename "\"inet.networklayer.ipv4.Icmp\""
par SingleCell_withSecondaryGnb.router.ipv4.icmp interfaceTableModule "\"SingleCell_withSecondaryGnb.router.interfaceTable\""
par SingleCell_withSecondaryGnb.router.ipv4.icmp routingTableModule "\"SingleCell_withSecondaryGnb.router.ipv4.routingTable\""
par SingleCell_withSecondaryGnb.router.ipv4.icmp crcMode "\"declared\""
attr enum declared,computed
attr mutable ""
par SingleCell_withSecondaryGnb.router.ipv4.icmp quoteLength 8B
attr mutable ""
attr unit B
par SingleCell_withSecondaryGnb.router.ipv4.mp typename "\"inet.common.MessageDispatcher\""
par SingleCell_withSecondaryGnb.router.ipv4.mp displayStringTextFormat "\"processed %p pk (%l)\""
par SingleCell_withSecondaryGnb.router.ipv4.mp forwardServiceRegistration true
par SingleCell_withSecondaryGnb.router.ipv4.mp forwardProtocolRegistration true
par SingleCell_withSecondaryGnb.router.ipv4.ip typename "\"inet.networklayer.ipv4.Ipv4\""
par SingleCell_withSecondaryGnb.router.ipv4.ip interfaceTableModule "\"SingleCell_withSecondaryGnb.router.interfaceTable\""
par SingleCell_withSecondaryGnb.router.ipv4.ip routingTableModule "\"SingleCell_withSecondaryGnb.router.ipv4.routingTable\""
par SingleCell_withSecondaryGnb.router.ipv4.ip arpModule "\"SingleCell_withSecondaryGnb.router.ipv4.arp\""
par SingleCell_withSecondaryGnb.router.ipv4.ip icmpModule "\"SingleCell_withSecondaryGnb.router.ipv4.icmp\""
par SingleCell_withSecondaryGnb.router.ipv4.ip crcMode "\"declared\""
attr enum declared,computed
par SingleCell_withSecondaryGnb.router.ipv4.ip timeToLive 32
par SingleCell_withSecondaryGnb.router.ipv4.ip multicastTimeToLive 32
par SingleCell_withSecondaryGnb.router.ipv4.ip fragmentTimeout 60s
attr unit s
par SingleCell_withSecondaryGnb.router.ipv4.ip limitedBroadcast false
par SingleCell_withSecondaryGnb.router.ipv4.ip directBroadcastInterfaces "\"\""
scalar SingleCell_withSecondaryGnb.router.ipv4.ip packetDropAddressResolutionFailed:count 0
attr interpolationmode none
attr recordingmode count
attr source packetDropReasonIsAddressResolutionFailed(packetDropped)
attr title "packet drop: address resolution failed, count"
scalar SingleCell_withSecondaryGnb.router.ipv4.ip packetDropAddressResolutionFailed:sum(packetBytes) 0
attr interpolationmode none
attr recordingmode sum(packetBytes)
attr source packetDropReasonIsAddressResolutionFailed(packetDropped)
attr title "packet drop: address resolution failed, sum(packetBytes)"
scalar SingleCell_withSecondaryGnb.router.ipv4.ip packetDropHopLimitReached:count 0
attr interpolationmode none
attr recordingmode count
attr source packetDropReasonIsHopLimitReached(packetDropped)
attr title "packet drop: hop limit reached, count"
scalar SingleCell_withSecondaryGnb.router.ipv4.ip packetDropHopLimitReached:sum(packetBytes) 0
attr interpolationmode none
attr recordingmode sum(packetBytes)
attr source packetDropReasonIsHopLimitReached(packetDropped)
attr title "packet drop: hop limit reached, sum(packetBytes)"
scalar SingleCell_withSecondaryGnb.router.ipv4.ip packetDropForwardingDisabled:count 0
attr interpolationmode none
attr recordingmode count
attr source packetDropReasonIsForwardingDisabled(packetDropped)
attr title "packet drop: forwarding disabled, count"
scalar SingleCell_withSecondaryGnb.router.ipv4.ip packetDropForwardingDisabled:sum(packetBytes) 0
attr interpolationmode none
attr recordingmode sum(packetBytes)
attr source packetDropReasonIsForwardingDisabled(packetDropped)
attr title "packet drop: forwarding disabled, sum(packetBytes)"
scalar SingleCell_withSecondaryGnb.router.ipv4.ip packetDropNoInterfaceFound:count 0
attr interpolationmode none
attr recordingmode count
attr source packetDropReasonIsNoInterfaceFound(packetDropped)
attr title "packet drop: no interface found, count"
scalar SingleCell_withSecondaryGnb.router.ipv4.ip packetDropNoInterfaceFound:sum(packetBytes) 0
attr interpolationmode none
attr recordingmode sum(packetBytes)
attr source packetDropReasonIsNoInterfaceFound(packetDropped)
attr title "packet drop: no interface found, sum(packetBytes)"
[...]
attr unit s
scalar SingleCell_withSecondaryGnb.ue[0].encap pauseSent:count 0
attr recordingmode count
attr title "pause sent, count"
scalar SingleCell_withSecondaryGnb.ue[0].encap pauseSent:sum 0
attr recordingmode sum
attr title "pause sent, sum"
scalar SingleCell_withSecondaryGnb.ue[0].encap decapPk:count 0
attr interpolationmode none
attr recordingmode count
attr source decapPk
attr title "packets decapsulated, count"
scalar SingleCell_withSecondaryGnb.ue[0].encap decapPk:sum(packetBytes) 0
attr interpolationmode none
attr recordingmode sum(packetBytes)
attr source decapPk
attr title "packets decapsulated, sum(packetBytes)"
scalar SingleCell_withSecondaryGnb.ue[0].encap encapPk:count 0
attr interpolationmode none
attr recordingmode count
attr source encapPk
attr title "packets encapsulated, count"
scalar SingleCell_withSecondaryGnb.ue[0].encap encapPk:sum(packetBytes) 0
attr interpolationmode none
attr recordingmode sum(packetBytes)
attr source encapPk
attr title "packets encapsulated, sum(packetBytes)"
par SingleCell_withSecondaryGnb.ue[0].ipv4.transportIn.channel typename "\"ned.IdealChannel\""
par SingleCell_withSecondaryGnb.ue[0].ipv4.up.out[0].channel typename "\"ned.IdealChannel\""
par SingleCell_withSecondaryGnb.ue[0].ipv4.lp.out[2].channel typename "\"ned.IdealChannel\""
par SingleCell_withSecondaryGnb.ue[0].ipv4.ifIn.channel typename "\"ned.IdealChannel\""
par SingleCell_withSecondaryGnb.ue[0].ipv4.configurator typename "\"inet.networklayer.configurator.ipv4.Ipv4NodeConfigurator\""
par SingleCell_withSecondaryGnb.ue[0].ipv4.configurator interfaceTableModule "\"SingleCell_withSecondaryGnb.ue[0].interfaceTable\""
par SingleCell_withSecondaryGnb.ue[0].ipv4.configurator routingTableModule "\"SingleCell_withSecondaryGnb.ue[0].ipv4.routingTable\""
par SingleCell_withSecondaryGnb.ue[0].ipv4.configurator networkConfiguratorModule "\"configurator\""
par SingleCell_withSecondaryGnb.ue[0].ipv4.configurator configureRoutingTable true
par SingleCell_withSecondaryGnb.ue[0].ipv4.routingTable typename "\"inet.networklayer.ipv4.Ipv4RoutingTable\""
par SingleCell_withSecondaryGnb.ue[0].ipv4.routingTable interfaceTableModule "\"SingleCell_withSecondaryGnb.ue[0].interfaceTable\""
par SingleCell_withSecondaryGnb.ue[0].ipv4.routingTable routerId "\"auto\""
par SingleCell_withSecondaryGnb.ue[0].ipv4.routingTable netmaskRoutes "\"*\""
par SingleCell_withSecondaryGnb.ue[0].ipv4.routingTable forwarding false
par SingleCell_withSecondaryGnb.ue[0].ipv4.routingTable multicastForwarding false
par SingleCell_withSecondaryGnb.ue[0].ipv4.routingTable useAdminDist false
par SingleCell_withSecondaryGnb.ue[0].ipv4.routingTable routingFile "\"\""
par SingleCell_withSecondaryGnb.ue[0].ipv4.natTable typename "\"inet.networklayer.ipv4.Ipv4NatTable\""
par SingleCell_withSecondaryGnb.ue[0].ipv4.natTable networkProtocolModule "\"^.ip\""
par SingleCell_withSecondaryGnb.ue[0].ipv4.natTable config "<config/> at content:1"
par SingleCell_withSecondaryGnb.ue[0].ipv4.up typename "\"inet.common.MessageDispatcher\""
par SingleCell_withSecondaryGnb.ue[0].ipv4.up displayStringTextFormat "\"processed %p pk (%l)\""
par SingleCell_withSecondaryGnb.ue[0].ipv4.up forwardServiceRegistration true
par SingleCell_withSecondaryGnb.ue[0].ipv4.up forwardProtocolRegistration true
par SingleCell_withSecondaryGnb.ue[0].ipv4.igmp typename "\"inet.networklayer.ipv4.Igmpv2\""
par SingleCell_withSecondaryGnb.ue[0].ipv4.igmp interfaceTableModule "\"SingleCell_withSecondaryGnb.ue[0].interfaceTable\""
par SingleCell_withSecondaryGnb.ue[0].ipv4.igmp routingTableModule "\"SingleCell_withSecondaryGnb.ue[0].ipv4.routingTable\""
par SingleCell_withSecondaryGnb.ue[0].ipv4.igmp crcMode "\"declared\""
attr enum declared,computed
par SingleCell_withSecondaryGnb.ue[0].ipv4.igmp enabled true
par SingleCell_withSecondaryGnb.ue[0].ipv4.igmp robustnessVariable 2
par SingleCell_withSecondaryGnb.ue[0].ipv4.igmp queryInterval 125s
attr unit s
par SingleCell_withSecondaryGnb.ue[0].ipv4.igmp queryResponseInterval 10s
attr unit s
par SingleCell_withSecondaryGnb.ue[0].ipv4.igmp groupMembershipInterval 260s
attr unit s
par SingleCell_withSecondaryGnb.ue[0].ipv4.igmp otherQuerierPresentInterval 255s
attr unit s
par SingleCell_withSecondaryGnb.ue[0].ipv4.igmp startupQueryInterval 31.25s
attr unit s
par SingleCell_withSecondaryGnb.ue[0].ipv4.igmp startupQueryCount 2
par SingleCell_withSecondaryGnb.ue[0].ipv4.igmp lastMemberQueryInterval 1s
attr unit s
par SingleCell_withSecondaryGnb.ue[0].ipv4.igmp lastMemberQueryCount 2
par SingleCell_withSecondaryGnb.ue[0].ipv4.igmp unsolicitedReportInterval 10s
attr unit s
par SingleCell_withSecondaryGnb.ue[0].ipv4.icmp typename "\"inet.networklayer.ipv4.Icmp\""
par SingleCell_withSecondaryGnb.ue[0].ipv4.icmp interfaceTableModule "\"SingleCell_withSecondaryGnb.ue[0].interfaceTable\""
par SingleCell_withSecondaryGnb.ue[0].ipv4.icmp routingTableModule "\"SingleCell_withSecondaryGnb.ue[0].ipv4.routingTable\""
par SingleCell_withSecondaryGnb.ue[0].ipv4.icmp crcMode "\"declared\""
attr enum declared,computed
attr mutable ""
par SingleCell_withSecondaryGnb.ue[0].ipv4.icmp quoteLength 8B
attr mutable ""
attr unit B
par SingleCell_withSecondaryGnb.ue[0].ipv4.mp typename "\"inet.common.MessageDispatcher\""
par SingleCell_withSecondaryGnb.ue[0].ipv4.mp displayStringTextFormat "\"processed %p pk (%l)\""
par SingleCell_withSecondaryGnb.ue[0].ipv4.mp forwardServiceRegistration true
par SingleCell_withSecondaryGnb.ue[0].ipv4.mp forwardProtocolRegistration true
par SingleCell_withSecondaryGnb.ue[0].ipv4.ip typename "\"inet.networklayer.ipv4.Ipv4\""
par SingleCell_withSecondaryGnb.ue[0].ipv4.ip interfaceTableModule "\"SingleCell_withSecondaryGnb.ue[0].interfaceTable\""
par SingleCell_withSecondaryGnb.ue[0].ipv4.ip routingTableModule "\"SingleCell_withSecondaryGnb.ue[0].ipv4.routingTable\""
par SingleCell_withSecondaryGnb.ue[0].ipv4.ip arpModule "\"SingleCell_withSecondaryGnb.ue[0].ipv4.arp\""
par SingleCell_withSecondaryGnb.ue[0].ipv4.ip icmpModule "\"SingleCell_withSecondaryGnb.ue[0].ipv4.icmp\""
par SingleCell_withSecondaryGnb.ue[0].ipv4.ip crcMode "\"declared\""
attr enum declared,computed
par SingleCell_withSecondaryGnb.ue[0].ipv4.ip timeToLive 32
par SingleCell_withSecondaryGnb.ue[0].ipv4.ip multicastTimeToLive 32
par SingleCell_withSecondaryGnb.ue[0].ipv4.ip fragmentTimeout 60s
attr unit s
par SingleCell_withSecondaryGnb.ue[0].ipv4.ip limitedBroadcast false
par SingleCell_withSecondaryGnb.ue[0].ipv4.ip directBroadcastInterfaces "\"\""
scalar SingleCell_withSecondaryGnb.ue[0].ipv4.ip packetDropAddressResolutionFailed:count 0
attr interpolationmode none
attr recordingmode count
attr source packetDropReasonIsAddressResolutionFailed(packetDropped)
attr title "packet drop: address resolution failed, count"
scalar SingleCell_withSecondaryGnb.ue[0].ipv4.ip packetDropAddressResolutionFailed:sum(packetBytes) 0
attr interpolationmode none
attr recordingmode sum(packetBytes)
attr source packetDropReasonIsAddressResolutionFailed(packetDropped)
attr title "packet drop: address resolution failed, sum(packetBytes)"
scalar SingleCell_withSecondaryGnb.ue[0].ipv4.ip packetDropHopLimitReached:count 0
attr interpolationmode none
attr recordingmode count
attr source packetDropReasonIsHopLimitReached(packetDropped)
attr title "packet drop: hop limit reached, count"
scalar SingleCell_withSecondaryGnb.ue[0].ipv4.ip packetDropHopLimitReached:sum(packetBytes) 0
attr interpolationmode none
attr recordingmode sum(packetBytes)
attr source packetDropReasonIsHopLimitReached(packetDropped)
attr title "packet drop: hop limit reached, sum(packetBytes)"
scalar SingleCell_withSecondaryGnb.ue[0].ipv4.ip packetDropForwardingDisabled:count 0
attr interpolationmode none
attr recordingmode count
attr source packetDropReasonIsForwardingDisabled(packetDropped)
attr title "packet drop: forwarding disabled, count"
scalar SingleCell_withSecondaryGnb.ue[0].ipv4.ip packetDropForwardingDisabled:sum(packetBytes) 0
attr interpolationmode none
attr recordingmode sum(packetBytes)
attr source packetDropReasonIsForwardingDisabled(packetDropped)
attr title "packet drop: forwarding disabled, sum(packetBytes)"
scalar SingleCell_withSecondaryGnb.ue[0].ipv4.ip packetDropNoInterfaceFound:count 0
attr interpolationmode none
attr recordingmode count
attr source packetDropReasonIsNoInterfaceFound(packetDropped)
attr title "packet drop: no interface found, count"
scalar SingleCell_withSecondaryGnb.ue[0].ipv4.ip packetDropNoInterfaceFound:sum(packetBytes) 0
attr interpolationmode none
attr recordingmode sum(packetBytes)
attr source packetDropReasonIsNoInterfaceFound(packetDropped)
attr title "packet drop: no interface found, sum(packetBytes)"
scalar SingleCell_withSecondaryGnb.ue[0].ipv4.ip packetDropNoRouteFound:count 0
attr interpolationmode none
attr recordingmode count
attr source packetDropReasonIsNoRouteFound(packetDropped)
attr title "packet drop: no route found, count"
scalar SingleCell_withSecondaryGnb.ue[0].ipv4.ip packetDropNoRouteFound:sum(packetBytes) 0
attr interpolationmode none
attr recordingmode sum(packetBytes)
attr source packetDropReasonIsNoRouteFound(packetDropped)
attr title "packet drop: no route found, sum(packetBytes)"
scalar SingleCell_withSecondaryGnb.ue[0].ipv4.ip packetDropUndefined:count 0
attr interpolationmode none
attr recordingmode count
attr source packetDropReasonIsUndefined(packetDropped)
attr title "packet drop: undefined, count"
scalar SingleCell_withSecondaryGnb.ue[0].ipv4.ip packetDropUndefined:sum(packetBytes) 0
attr interpolationmode none
attr recordingmode sum(packetBytes)
attr source packetDropReasonIsUndefined(packetDropped)
attr title "packet drop: undefined, sum(packetBytes)"
par SingleCell_withSecondaryGnb.ue[0].ipv4.arp typename "\"inet.networklayer.arp.ipv4.Arp\""
par SingleCell_withSecondaryGnb.ue[0].ipv4.arp interfaceTableModule "\"SingleCell_withSecondaryGnb.ue[0].interfaceTable\""
par SingleCell_withSecondaryGnb.ue[0].ipv4.arp routingTableModule "\"SingleCell_withSecondaryGnb.ue[0].ipv4.routingTable\""
par SingleCell_withSecondaryGnb.ue[0].ipv4.arp retryTimeout 1s
attr unit s
par SingleCell_withSecondaryGnb.ue[0].ipv4.arp retryCount 3
par SingleCell_withSecondaryGnb.ue[0].ipv4.arp cacheTimeout 120s
attr unit s
par SingleCell_withSecondaryGnb.ue[0].ipv4.arp proxyArpInterfaces "\"*\""
scalar SingleCell_withSecondaryGnb.ue[0].ipv4.arp arpResolutionFailed:count 0
attr recordingmode count
attr title "ARP failed resolutions, count"
scalar SingleCell_withSecondaryGnb.ue[0].ipv4.arp arpResolutionCompleted:count 0
attr recordingmode count
attr title "ARP completed resolutions, count"
scalar SingleCell_withSecondaryGnb.ue[0].ipv4.arp arpResolutionInitiated:count 0
attr recordingmode count
attr title "ARP initiated resolutions, count"
scalar SingleCell_withSecondaryGnb.ue[0].ipv4.arp arpReplySent:count 0
attr recordingmode count
attr source arpReplySent
attr title "ARP replies sent, count"
scalar SingleCell_withSecondaryGnb.ue[0].ipv4.arp arpReplySent:sum(packetBytes) 0
attr recordingmode sum(packetBytes)
attr source arpReplySent
attr title "ARP replies sent, sum(packetBytes)"
scalar SingleCell_withSecondaryGnb.ue[0].ipv4.arp arpRequestSent:count 0
attr recordingmode count
attr source arpRequestSent
attr title "ARP request sent, count"
scalar SingleCell_withSecondaryGnb.ue[0].ipv4.arp arpRequestSent:sum(packetBytes) 0
attr recordingmode sum(packetBytes)
attr source arpRequestSent
attr title "ARP request sent, sum(packetBytes)"
par SingleCell_withSecondaryGnb.ue[0].ipv4.lp typename "\"inet.common.MessageDispatcher\""
par SingleCell_withSecondaryGnb.ue[0].ipv4.lp displayStringTextFormat "\"processed %p pk (%l)\""
par SingleCell_withSecondaryGnb.ue[0].ipv4.lp forwardServiceRegistration true
par SingleCell_withSecondaryGnb.ue[0].ipv4.lp forwardProtocolRegistration true
par SingleCell_withSecondaryGnb.ue[0].ipv4 typename "\"inet.networklayer.ipv4.Ipv4NetworkLayer\""
par SingleCell_withSecondaryGnb.ue[0].ipv4 forwarding false
par SingleCell_withSecondaryGnb.ue[0].ipv4 multicastForwarding false
par SingleCell_withSecondaryGnb.ue[0].ipv4 interfaceTableModule "\"SingleCell_withSecondaryGnb.ue[0].interfaceTable\""
par SingleCell_withSecondaryGnb.ue[0].ipv4 displayStringTextFormat "\"%i\""
par SingleCell_withSecondaryGnb.ue[0].udp typename "\"inet.transportlayer.udp.Udp\""
par SingleCell_withSecondaryGnb.ue[0].udp interfaceTableModule "\"SingleCell_withSecondaryGnb.ue[0].interfaceTable\""
par SingleCell_withSecondaryGnb.ue[0].udp icmpModule "\"^.ipv4.icmp\""
par SingleCell_withSecondaryGnb.ue[0].udp icmpv6Module "\"^.ipv6.icmpv6\""
par SingleCell_withSecondaryGnb.ue[0].udp crcMode "\"declared\""
attr enum disabled,declared,computed
par SingleCell_withSecondaryGnb.ue[0].udp defaultMulticastLoop true
scalar SingleCell_withSecondaryGnb.ue[0].udp packetReceived:count 0
attr interpolationmode none
attr recordingmode count
attr source packetReceived
attr title "packets received, count"
scalar SingleCell_withSecondaryGnb.ue[0].udp packetReceived:sum(packetBytes) 0
attr interpolationmode none
attr recordingmode sum(packetBytes)
attr source packetReceived
attr title "packets received, sum(packetBytes)"
scalar SingleCell_withSecondaryGnb.ue[0].udp packetSent:count 0
attr interpolationmode none
attr recordingmode count
attr source packetSent
attr title "packets sent, count"
scalar SingleCell_withSecondaryGnb.ue[0].udp packetSent:sum(packetBytes) 0
attr interpolationmode none
attr recordingmode sum(packetBytes)
attr source packetSent
attr title "packets sent, sum(packetBytes)"
scalar SingleCell_withSecondaryGnb.ue[0].udp passedUpPk:count 0
attr interpolationmode none
attr recordingmode count
attr source packetSentToUpper
attr title "packets passed up, count"
scalar SingleCell_withSecondaryGnb.ue[0].udp droppedPkWrongPort:count 0
attr interpolationmode none
attr recordingmode count
attr source packetDropReasonIsNoPortFound(packetDropped)
attr title "packets dropped (wrong port), count"
scalar SingleCell_withSecondaryGnb.ue[0].udp droppedPkBadChecksum:count 0
attr interpolationmode none
attr recordingmode count
attr source packetDropReasonIsIncorrectlyReceived(packetDropped)
attr title "packets dropped (checksum error), count"
par SingleCell_withSecondaryGnb.ue[0].tcp typename "\"inet.transportlayer.tcp.Tcp\""
par SingleCell_withSecondaryGnb.ue[0].tcp crcMode "\"declared\""
attr enum declared,computed
par SingleCell_withSecondaryGnb.ue[0].tcp advertisedWindow 7504
par SingleCell_withSecondaryGnb.ue[0].tcp delayedAcksEnabled false
par SingleCell_withSecondaryGnb.ue[0].tcp nagleEnabled true
par SingleCell_withSecondaryGnb.ue[0].tcp limitedTransmitEnabled false
par SingleCell_withSecondaryGnb.ue[0].tcp increasedIWEnabled false
par SingleCell_withSecondaryGnb.ue[0].tcp sackSupport false
par SingleCell_withSecondaryGnb.ue[0].tcp windowScalingSupport false
par SingleCell_withSecondaryGnb.ue[0].tcp windowScalingFactor -1
par SingleCell_withSecondaryGnb.ue[0].tcp timestampSupport false
par SingleCell_withSecondaryGnb.ue[0].tcp mss 536
par SingleCell_withSecondaryGnb.ue[0].tcp msl 120s
attr unit s
par SingleCell_withSecondaryGnb.ue[0].tcp tcpAlgorithmClass "\"TcpReno\""
par SingleCell_withSecondaryGnb.ue[0].tcp useDataNotification false
par SingleCell_withSecondaryGnb.ue[0].tcp dupthresh 3
par SingleCell_withSecondaryGnb.ue[0].tcp initialSsthresh 4294967295
par SingleCell_withSecondaryGnb.ue[0].tcp stopOperationExtraTime 0s
attr unit s
par SingleCell_withSecondaryGnb.ue[0].tcp stopOperationTimeout 2s
attr unit s
par SingleCell_withSecondaryGnb.ue[0].tcp ecnWillingness false
par SingleCell_withSecondaryGnb.ue[0].tcp dctcpGamma 0.0625
par SingleCell_withSecondaryGnb.ue[0].app[0] typename "\"simu5g.apps.voip.VoipReceiver\""
par SingleCell_withSecondaryGnb.ue[0].app[0] localPort 3000
par SingleCell_withSecondaryGnb.ue[0].app[0] emodel_Ie 5
par SingleCell_withSecondaryGnb.ue[0].app[0] emodel_Bpl 10
par SingleCell_withSecondaryGnb.ue[0].app[0] emodel_A 5
par SingleCell_withSecondaryGnb.ue[0].app[0] emodel_Ro 93.2
par SingleCell_withSecondaryGnb.ue[0].app[0] playoutDelay 0s
attr unit s
par SingleCell_withSecondaryGnb.ue[0].app[0] dimBuffer 20pk
attr unit pk
par SingleCell_withSecondaryGnb.ue[0].app[0] samplingTime 0.02s
attr unit s
scalar SingleCell_withSecondaryGnb.ue[0].app[0] voIPReceivedThroughput:mean -nan
attr recordingmode mean
attr source voIPReceivedThroughput
attr title "Throughput received at the application level, mean"
attr unit Bps
scalar SingleCell_withSecondaryGnb.ue[0].app[0] voIPPlayoutLoss:mean -nan
attr recordingmode mean
attr source voIPPlayoutLoss
attr title "VoIP Playout Loss, mean"
attr unit ratio
scalar SingleCell_withSecondaryGnb.ue[0].app[0] voIPJitter:mean -nan
attr recordingmode mean
attr source voIPJitter
attr title "VoIP Jitter, mean"
attr unit s
scalar SingleCell_withSecondaryGnb.ue[0].app[0] voIPTaildropLoss:mean -nan
attr recordingmode mean
attr source voIPTaildropLoss
attr title "VoIP Tail Drop Loss, mean"
attr unit ratio
scalar SingleCell_withSecondaryGnb.ue[0].app[0] voIPMos:mean -nan
attr recordingmode mean
attr source voIPMos
attr title "VoIP Mos Signal, mean"
attr unit MOS
scalar SingleCell_withSecondaryGnb.ue[0].app[0] voIPPlayoutDelay:mean -nan
attr recordingmode mean
attr source voIPPlayoutDelay
attr title "VoIP Playout Delay, mean"
attr unit s
scalar SingleCell_withSecondaryGnb.ue[0].app[0] voIPFrameDelay:mean -nan
attr recordingmode mean
attr source voIPFrameDelay
attr title "VoIP Frame Delay, mean"
attr unit s
scalar SingleCell_withSecondaryGnb.ue[0].app[0] voIPFrameLoss:mean -nan
attr recordingmode mean
attr source voIPFrameLoss
attr title "VoIP Frame Loss, mean"
attr unit ratio
par SingleCell_withSecondaryGnb.ue[0].at typename "\"inet.common.MessageDispatcher\""
par SingleCell_withSecondaryGnb.ue[0].at displayStringTextFormat "\"processed %p pk (%l)\""
par SingleCell_withSecondaryGnb.ue[0].at forwardServiceRegistration true
par SingleCell_withSecondaryGnb.ue[0].at forwardProtocolRegistration true
par SingleCell_withSecondaryGnb.ue[0].tn typename "\"inet.common.MessageDispatcher\""
par SingleCell_withSecondaryGnb.ue[0].tn displayStringTextFormat "\"processed %p pk (%l)\""
par SingleCell_withSecondaryGnb.ue[0].tn forwardServiceRegistration true
par SingleCell_withSecondaryGnb.ue[0].tn forwardProtocolRegistration true
par SingleCell_withSecondaryGnb.ue[0].nl typename "\"inet.common.MessageDispatcher\""
par SingleCell_withSecondaryGnb.ue[0].nl displayStringTextFormat "\"processed %p pk (%l)\""
par SingleCell_withSecondaryGnb.ue[0].nl forwardServiceRegistration true
par SingleCell_withSecondaryGnb.ue[0].nl forwardProtocolRegistration true
par SingleCell_withSecondaryGnb.ue[0] typename "\"simu5g.nodes.NrUe\""
par SingleCell_withSecondaryGnb.ue[0] numApps 1
par SingleCell_withSecondaryGnb.ue[0] hasUdp true
par SingleCell_withSecondaryGnb.ue[0] hasTcp true
par SingleCell_withSecondaryGnb.ue[0] hasSctp false
par SingleCell_withSecondaryGnb.ue[0] nodeType "\"UE\""
par SingleCell_withSecondaryGnb.ue[0] masterId 1
attr mutable ""
par SingleCell_withSecondaryGnb.ue[0] macNodeId 1025
attr mutable ""
par SingleCell_withSecondaryGnb.ue[0] macCellId 1
attr mutable ""
par SingleCell_withSecondaryGnb.ue[0] hasIpv4 true
par SingleCell_withSecondaryGnb.ue[0] hasIpv6 false
par SingleCell_withSecondaryGnb.ue[0] numEthInterfaces 0
par SingleCell_withSecondaryGnb.ue[0] extHostAddress "\"\""
par SingleCell_withSecondaryGnb.ue[0] numLoInterfaces 1
par SingleCell_withSecondaryGnb.ue[0] numPcapRecorders 0
par SingleCell_withSecondaryGnb.ue[0] hasRniSupport false
par SingleCell_withSecondaryGnb.ue[0] nrMasterId 2
attr mutable ""
par SingleCell_withSecondaryGnb.ue[0] nrMacNodeId 2049
attr mutable ""
par SingleCell_withSecondaryGnb.ue[0] nrMacCellId 2
attr mutable ""
par SingleCell_withSecondaryGnb typename "\"simu5g.simulations.nr.networks.SingleCell_withSecondaryGnb\""
par SingleCell_withSecondaryGnb numUe 1
par SingleCell_withSecondaryGnb numBgCells 0

