version 3
run General-0-20251121-20:05:13-167072
attr configname General
attr datetime 20251121-20:05:13
attr datetimef 20251121-200513
attr experiment General
attr inifile omnetpp.ini
attr iterationvars ""
attr iterationvarsd ""
attr iterationvarsf ""
attr measurement ""
attr network DemoNetworkEth
attr processid 167072
attr repetition 0
attr replication #0
attr resultdir results
attr runnumber 0
attr seedset 0
config image-path ../../../images
config network DemoNetworkEth
config *.n 2
config *.visualizer.interfaceTableVisualizer.displayInterfaceTables true
config *.visualizer.interfaceTableVisualizer.format "\"%N %t %a\""
config *.visualizer.interfaceTableVisualizer.displayBackground true
config *.visualizer.interfaceTableVisualizer.textColor "\"#902020\""
config **.cli[*].numApps 1
config **.cli[*].app[*].typename TelnetApp
config **.cli[*].app[0].localAddress "\"\""
config **.cli[*].app[0].localPort 1000
config **.cli[*].app[0].connectAddress "\"srv[1]\""
config **.cli[*].app[0].connectPort 1000
config **.cli[*].app[0].startTime uniform(10s,15s)
config **.cli[*].app[0].numCommands int(exponential(10))
config **.cli[*].app[0].commandLength intWithUnit(exponential(10B))
config **.cli[*].app[0].keyPressDelay exponential(0.1s)
config **.cli[*].app[0].commandOutputLength intWithUnit(exponential(40B))
config **.cli[*].app[0].thinkTime truncnormal(2s,3s)
config **.cli[*].app[0].idleInterval truncnormal(3600s,1200s)
config **.cli[*].app[0].reconnectInterval 30s
config **.srv[*].numApps 1
config **.srv[*].app[*].typename TcpGenericServerApp
config **.srv[*].app[0].localAddress "\"\""
config **.srv[*].app[0].localPort 1000
config **.srv[*].app[0].replyDelay 0s
config **.eth[*].queue.typename EthernetQosQueue
config **.eth[*].queue.dataQueue.typename DropTailQueue
config **.eth[*].queue.dataQueue.packetCapacity 10
config **.eth[*].duplexMode true

par DemoNetworkEth.cli[0].ethg$o[0].channel typename "\"inet.examples.ipv6.demonetworketh.DemoNetworkEth.ethernetline\""
par DemoNetworkEth.cli[0].ethg$o[0].channel disabled false
attr mutable ""
par DemoNetworkEth.cli[0].ethg$o[0].channel delay 1e-07s
attr mutable ""
attr unit s
par DemoNetworkEth.cli[0].ethg$o[0].channel datarate 1e+07bps
attr mutable ""
attr unit bps
par DemoNetworkEth.cli[0].ethg$o[0].channel ber 0
attr mutable ""
par DemoNetworkEth.cli[0].ethg$o[0].channel per 0
attr mutable ""
par DemoNetworkEth.r1.ethg$o[0].channel typename "\"inet.examples.ipv6.demonetworketh.DemoNetworkEth.ethernetline\""
par DemoNetworkEth.r1.ethg$o[0].channel disabled false
attr mutable ""
par DemoNetworkEth.r1.ethg$o[0].channel delay 1e-07s
attr mutable ""
attr unit s
par DemoNetworkEth.r1.ethg$o[0].channel datarate 1e+07bps
attr mutable ""
attr unit bps
par DemoNetworkEth.r1.ethg$o[0].channel ber 0
attr mutable ""
par DemoNetworkEth.r1.ethg$o[0].channel per 0
attr mutable ""
par DemoNetworkEth.srv[0].ethg$o[0].channel typename "\"inet.examples.ipv6.demonetworketh.DemoNetworkEth.ethernetline\""
par DemoNetworkEth.srv[0].ethg$o[0].channel disabled false
attr mutable ""
par DemoNetworkEth.srv[0].ethg$o[0].channel delay 1e-07s
attr mutable ""
attr unit s
par DemoNetworkEth.srv[0].ethg$o[0].channel datarate 1e+07bps
attr mutable ""
attr unit bps
par DemoNetworkEth.srv[0].ethg$o[0].channel ber 0
attr mutable ""
par DemoNetworkEth.srv[0].ethg$o[0].channel per 0
attr mutable ""
par DemoNetworkEth.r2.ethg$o[0].channel typename "\"inet.examples.ipv6.demonetworketh.DemoNetworkEth.ethernetline\""
par DemoNetworkEth.r2.ethg$o[0].channel disabled false
attr mutable ""
par DemoNetworkEth.r2.ethg$o[0].channel delay 1e-07s
attr mutable ""
attr unit s
par DemoNetworkEth.r2.ethg$o[0].channel datarate 1e+07bps
attr mutable ""
attr unit bps
par DemoNetworkEth.r2.ethg$o[0].channel ber 0
attr mutable ""
par DemoNetworkEth.r2.ethg$o[0].channel per 0
attr mutable ""
par DemoNetworkEth.cli[1].ethg$o[0].channel typename "\"inet.examples.ipv6.demonetworketh.DemoNetworkEth.ethernetline\""
par DemoNetworkEth.cli[1].ethg$o[0].channel disabled false
attr mutable ""
par DemoNetworkEth.cli[1].ethg$o[0].channel delay 1e-07s
attr mutable ""
attr unit s
par DemoNetworkEth.cli[1].ethg$o[0].channel datarate 1e+07bps
attr mutable ""
attr unit bps
par DemoNetworkEth.cli[1].ethg$o[0].channel ber 0
attr mutable ""
par DemoNetworkEth.cli[1].ethg$o[0].channel per 0
attr mutable ""
par DemoNetworkEth.r1.ethg$o[1].channel typename "\"inet.examples.ipv6.demonetworketh.DemoNetworkEth.ethernetline\""
par DemoNetworkEth.r1.ethg$o[1].channel disabled false
attr mutable ""
par DemoNetworkEth.r1.ethg$o[1].channel delay 1e-07s
attr mutable ""
attr unit s
par DemoNetworkEth.r1.ethg$o[1].channel datarate 1e+07bps
attr mutable ""
attr unit bps
par DemoNetworkEth.r1.ethg$o[1].channel ber 0
attr mutable ""
par DemoNetworkEth.r1.ethg$o[1].channel per 0
attr mutable ""
par DemoNetworkEth.srv[1].ethg$o[0].channel typename "\"inet.examples.ipv6.demonetworketh.DemoNetworkEth.ethernetline\""
par DemoNetworkEth.srv[1].ethg$o[0].channel disabled false
attr mutable ""
par DemoNetworkEth.srv[1].ethg$o[0].channel delay 1e-07s
attr mutable ""
attr unit s
par DemoNetworkEth.srv[1].ethg$o[0].channel datarate 1e+07bps
attr mutable ""
attr unit bps
par DemoNetworkEth.srv[1].ethg$o[0].channel ber 0
attr mutable ""
par DemoNetworkEth.srv[1].ethg$o[0].channel per 0
attr mutable ""
par DemoNetworkEth.r2.ethg$o[1].channel typename "\"inet.examples.ipv6.demonetworketh.DemoNetworkEth.ethernetline\""
par DemoNetworkEth.r2.ethg$o[1].channel disabled false
attr mutable ""
par DemoNetworkEth.r2.ethg$o[1].channel delay 1e-07s
attr mutable ""
attr unit s
par DemoNetworkEth.r2.ethg$o[1].channel datarate 1e+07bps
attr mutable ""
attr unit bps
par DemoNetworkEth.r2.ethg$o[1].channel ber 0
attr mutable ""
par DemoNetworkEth.r2.ethg$o[1].channel per 0
attr mutable ""
par DemoNetworkEth.r1.ethg$o[2].channel typename "\"inet.examples.ipv6.demonetworketh.DemoNetworkEth.ethernetline\""
par DemoNetworkEth.r1.ethg$o[2].channel disabled false
attr mutable ""
par DemoNetworkEth.r1.ethg$o[2].channel delay 1e-07s
attr mutable ""
attr unit s
par DemoNetworkEth.r1.ethg$o[2].channel datarate 1e+07bps
attr mutable ""
attr unit bps
par DemoNetworkEth.r1.ethg$o[2].channel ber 0
attr mutable ""
par DemoNetworkEth.r1.ethg$o[2].channel per 0
attr mutable ""
par DemoNetworkEth.r2.ethg$o[2].channel typename "\"inet.examples.ipv6.demonetworketh.DemoNetworkEth.ethernetline\""
par DemoNetworkEth.r2.ethg$o[2].channel disabled false
attr mutable ""
par DemoNetworkEth.r2.ethg$o[2].channel delay 1e-07s
attr mutable ""
attr unit s
par DemoNetworkEth.r2.ethg$o[2].channel datarate 1e+07bps
attr mutable ""
attr unit bps
par DemoNetworkEth.r2.ethg$o[2].channel ber 0
attr mutable ""
par DemoNetworkEth.r2.ethg$o[2].channel per 0
attr mutable ""
par DemoNetworkEth.configurator typename "\"inet.networklayer.configurator.ipv6.Ipv6FlatNetworkConfigurator\""
par DemoNetworkEth.visualizer.sceneVisualizer typename "\"inet.visualizer.canvas.scene.SceneCanvasVisualizer\""
par DemoNetworkEth.visualizer.sceneVisualizer visualizationTargetModule "\"^.^\""
par DemoNetworkEth.visualizer.sceneVisualizer visualizationSubjectModule "\"^.^\""
par DemoNetworkEth.visualizer.sceneVisualizer tags "\"\""
par DemoNetworkEth.visualizer.sceneVisualizer physicalEnvironmentModule "\"physicalEnvironment\""
par DemoNetworkEth.visualizer.sceneVisualizer networkNodeVisualizerModule "\"^.networkNodeVisualizer\""
par DemoNetworkEth.visualizer.sceneVisualizer axisLength "nan m"
attr mutable ""
attr unit m
par DemoNetworkEth.visualizer.sceneVisualizer animationSpeed 0
par DemoNetworkEth.visualizer.sceneVisualizer sceneMinX "nan m"
attr unit m
par DemoNetworkEth.visualizer.sceneVisualizer sceneMinY "nan m"
attr unit m
par DemoNetworkEth.visualizer.sceneVisualizer sceneMinZ "nan m"
attr unit m
par DemoNetworkEth.visualizer.sceneVisualizer sceneMaxX "nan m"
attr unit m
par DemoNetworkEth.visualizer.sceneVisualizer sceneMaxY "nan m"
attr unit m
par DemoNetworkEth.visualizer.sceneVisualizer sceneMaxZ "nan m"
attr unit m
par DemoNetworkEth.visualizer.sceneVisualizer zIndex 0
par DemoNetworkEth.visualizer.sceneVisualizer viewAngle "\"x right y down z out\""
attr mutable ""
par DemoNetworkEth.visualizer.sceneVisualizer viewScale "\"1 1\""
attr mutable ""
par DemoNetworkEth.visualizer.sceneVisualizer viewTranslation "\"0 0\""
attr mutable ""
par DemoNetworkEth.visualizer.sceneVisualizer descriptionFigure "\"\""
par DemoNetworkEth.visualizer.physicalEnvironmentVisualizer typename "\"inet.visualizer.canvas.environment.PhysicalEnvironmentCanvasVisualizer\""
par DemoNetworkEth.visualizer.physicalEnvironmentVisualizer visualizationTargetModule "\"^.^\""
par DemoNetworkEth.visualizer.physicalEnvironmentVisualizer visualizationSubjectModule "\"^.^\""
par DemoNetworkEth.visualizer.physicalEnvironmentVisualizer tags "\"\""
par DemoNetworkEth.visualizer.physicalEnvironmentVisualizer physicalEnvironmentModule "\"physicalEnvironment\""
par DemoNetworkEth.visualizer.physicalEnvironmentVisualizer displayObjects true
par DemoNetworkEth.visualizer.physicalEnvironmentVisualizer zIndex 0
par DemoNetworkEth.visualizer.networkNodeVisualizer typename "\"inet.visualizer.canvas.scene.NetworkNodeCanvasVisualizer\""
par DemoNetworkEth.visualizer.networkNodeVisualizer visualizationTargetModule "\"^.^\""
par DemoNetworkEth.visualizer.networkNodeVisualizer visualizationSubjectModule "\"^.^\""
par DemoNetworkEth.visualizer.networkNodeVisualizer tags "\"\""
par DemoNetworkEth.visualizer.networkNodeVisualizer nodeFilter "\"*\""
attr mutable ""
par DemoNetworkEth.visualizer.networkNodeVisualizer annotationSpacing 4
par DemoNetworkEth.visualizer.networkNodeVisualizer placementPenalty 10
par DemoNetworkEth.visualizer.networkNodeVisualizer zIndex 0
par DemoNetworkEth.visualizer.networkConnectionVisualizer typename "\"inet.visualizer.canvas.scene.NetworkConnectionCanvasVisualizer\""
par DemoNetworkEth.visualizer.networkConnectionVisualizer visualizationTargetModule "\"^.^\""
par DemoNetworkEth.visualizer.networkConnectionVisualizer visualizationSubjectModule "\"^.^\""
par DemoNetworkEth.visualizer.networkConnectionVisualizer tags "\"\""
par DemoNetworkEth.visualizer.networkConnectionVisualizer displayNetworkConnections true
par DemoNetworkEth.visualizer.networkConnectionVisualizer nodeFilter "\"\""
attr mutable ""
par DemoNetworkEth.visualizer.networkConnectionVisualizer lineColor "\"black\""
par DemoNetworkEth.visualizer.networkConnectionVisualizer lineStyle "\"solid\""
par DemoNetworkEth.visualizer.networkConnectionVisualizer lineWidth 1
par DemoNetworkEth.visualizer.networkConnectionVisualizer zIndex 0
par DemoNetworkEth.visualizer.mobilityVisualizer typename "\"inet.visualizer.canvas.mobility.MobilityCanvasVisualizer\""
par DemoNetworkEth.visualizer.mobilityVisualizer visualizationTargetModule "\"^.^\""
par DemoNetworkEth.visualizer.mobilityVisualizer visualizationSubjectModule "\"^.^\""
par DemoNetworkEth.visualizer.mobilityVisualizer tags "\"\""
par DemoNetworkEth.visualizer.mobilityVisualizer networkNodeVisualizerModule "\"^.networkNodeVisualizer\""
par DemoNetworkEth.visualizer.mobilityVisualizer displayMobility true
par DemoNetworkEth.visualizer.mobilityVisualizer animationSpeed 0
par DemoNetworkEth.visualizer.mobilityVisualizer moduleFilter "\"**.mobility\""
attr mutable ""
par DemoNetworkEth.visualizer.mobilityVisualizer displayPositions false
par DemoNetworkEth.visualizer.mobilityVisualizer positionCircleRadius 4
par DemoNetworkEth.visualizer.mobilityVisualizer positionCircleLineWidth 1
par DemoNetworkEth.visualizer.mobilityVisualizer positionCircleLineColor "\"dark\""
par DemoNetworkEth.visualizer.mobilityVisualizer positionCircleFillColor "\"dark\""
par DemoNetworkEth.visualizer.mobilityVisualizer displayOrientations false
par DemoNetworkEth.visualizer.mobilityVisualizer orientationPieRadius 32
par DemoNetworkEth.visualizer.mobilityVisualizer orientationPieSize 0.2
par DemoNetworkEth.visualizer.mobilityVisualizer orientationPieOpacity 0.25
par DemoNetworkEth.visualizer.mobilityVisualizer orientationLineColor "\"black\""
par DemoNetworkEth.visualizer.mobilityVisualizer orientationLineStyle "\"solid\""
par DemoNetworkEth.visualizer.mobilityVisualizer orientationLineWidth 1
par DemoNetworkEth.visualizer.mobilityVisualizer orientationFillColor "\"blue\""
par DemoNetworkEth.visualizer.mobilityVisualizer displayVelocities false
par DemoNetworkEth.visualizer.mobilityVisualizer velocityArrowScale 1
par DemoNetworkEth.visualizer.mobilityVisualizer velocityLineColor "\"black\""
par DemoNetworkEth.visualizer.mobilityVisualizer velocityLineStyle "\"solid\""
par DemoNetworkEth.visualizer.mobilityVisualizer velocityLineWidth 1
par DemoNetworkEth.visualizer.mobilityVisualizer displayMovementTrails false
par DemoNetworkEth.visualizer.mobilityVisualizer movementTrailLineColor "\"dark\""
par DemoNetworkEth.visualizer.mobilityVisualizer movementTrailLineStyle "\"solid\""
par DemoNetworkEth.visualizer.mobilityVisualizer movementTrailLineWidth 1
par DemoNetworkEth.visualizer.mobilityVisualizer trailLength 100
par DemoNetworkEth.visualizer.mobilityVisualizer zIndex 0
par DemoNetworkEth.visualizer.statisticVisualizer typename "\"inet.visualizer.canvas.common.StatisticCanvasVisualizer\""
par DemoNetworkEth.visualizer.statisticVisualizer visualizationTargetModule "\"^.^\""
par DemoNetworkEth.visualizer.statisticVisualizer visualizationSubjectModule "\"^.^\""
par DemoNetworkEth.visualizer.statisticVisualizer tags "\"\""
par DemoNetworkEth.visualizer.statisticVisualizer networkNodeVisualizerModule "\"^.networkNodeVisualizer\""
par DemoNetworkEth.visualizer.statisticVisualizer displayStatistics true
par DemoNetworkEth.visualizer.statisticVisualizer signalName "\"\""
par DemoNetworkEth.visualizer.statisticVisualizer statisticName "\"\""
par DemoNetworkEth.visualizer.statisticVisualizer statisticUnit "\"\""
par DemoNetworkEth.visualizer.statisticVisualizer statisticExpression "\"\""
par DemoNetworkEth.visualizer.statisticVisualizer sourceFilter "\"**\""
attr mutable ""
par DemoNetworkEth.visualizer.statisticVisualizer format "\"%n: %v %u\""
attr mutable ""
par DemoNetworkEth.visualizer.statisticVisualizer unit "\"\""
par DemoNetworkEth.visualizer.statisticVisualizer font "\"<default>\""
par DemoNetworkEth.visualizer.statisticVisualizer textColor "\"black\""
par DemoNetworkEth.visualizer.statisticVisualizer backgroundColor "\"white\""
par DemoNetworkEth.visualizer.statisticVisualizer opacity 1
par DemoNetworkEth.visualizer.statisticVisualizer placementHint "\"top\""
par DemoNetworkEth.visualizer.statisticVisualizer placementPriority 0
par DemoNetworkEth.visualizer.statisticVisualizer zIndex 10
par DemoNetworkEth.visualizer.statisticVisualizer propertyName "\"\""
par DemoNetworkEth.visualizer.statisticVisualizer propertyIndex "\"\""
par DemoNetworkEth.visualizer.infoVisualizer typename "\"inet.visualizer.canvas.common.InfoCanvasVisualizer\""
par DemoNetworkEth.visualizer.infoVisualizer visualizationTargetModule "\"^.^\""
par DemoNetworkEth.visualizer.infoVisualizer visualizationSubjectModule "\"^.^\""
par DemoNetworkEth.visualizer.infoVisualizer tags "\"\""
par DemoNetworkEth.visualizer.infoVisualizer networkNodeVisualizerModule "\"^.networkNodeVisualizer\""
par DemoNetworkEth.visualizer.infoVisualizer displayInfos true
par DemoNetworkEth.visualizer.infoVisualizer modules "\"\""
attr mutable ""
par DemoNetworkEth.visualizer.infoVisualizer format "\"%t\""
attr mutable ""
par DemoNetworkEth.visualizer.infoVisualizer font "\"<default>\""
par DemoNetworkEth.visualizer.infoVisualizer textColor "\"black\""
par DemoNetworkEth.visualizer.infoVisualizer backgroundColor "\"white\""
par DemoNetworkEth.visualizer.infoVisualizer opacity 1
par DemoNetworkEth.visualizer.infoVisualizer placementHint "\"top\""
par DemoNetworkEth.visualizer.infoVisualizer placementPriority 0
par DemoNetworkEth.visualizer.infoVisualizer zIndex 10
par DemoNetworkEth.visualizer.energyStorageVisualizer typename "\"inet.visualizer.canvas.power.EnergyStorageCanvasVisualizer\""
par DemoNetworkEth.visualizer.energyStorageVisualizer visualizationTargetModule "\"^.^\""
par DemoNetworkEth.visualizer.energyStorageVisualizer visualizationSubjectModule "\"^.^\""
par DemoNetworkEth.visualizer.energyStorageVisualizer tags "\"\""
par DemoNetworkEth.visualizer.energyStorageVisualizer networkNodeVisualizerModule "\"^.networkNodeVisualizer\""
par DemoNetworkEth.visualizer.energyStorageVisualizer displayEnergyStorages false
par DemoNetworkEth.visualizer.energyStorageVisualizer energyStorageFilter "\"**\""
par DemoNetworkEth.visualizer.energyStorageVisualizer color "\"green\""
par DemoNetworkEth.visualizer.energyStorageVisualizer width 8
par DemoNetworkEth.visualizer.energyStorageVisualizer height 24
par DemoNetworkEth.visualizer.energyStorageVisualizer spacing 2
par DemoNetworkEth.visualizer.energyStorageVisualizer placementHint "\"right\""
par DemoNetworkEth.visualizer.energyStorageVisualizer placementPriority 0
par DemoNetworkEth.visualizer.energyStorageVisualizer zIndex 10
par DemoNetworkEth.visualizer.mediumVisualizer typename "\"inet.visualizer.canvas.physicallayer.MediumCanvasVisualizer\""
par DemoNetworkEth.visualizer.mediumVisualizer visualizationTargetModule "\"^.^\""
par DemoNetworkEth.visualizer.mediumVisualizer visualizationSubjectModule "\"^.^\""
par DemoNetworkEth.visualizer.mediumVisualizer tags "\"\""
par DemoNetworkEth.visualizer.mediumVisualizer mediumModule "\"radioMedium\""
par DemoNetworkEth.visualizer.mediumVisualizer networkNodeVisualizerModule "\"^.networkNodeVisualizer\""
par DemoNetworkEth.visualizer.mediumVisualizer nodeFilter "\"*\""
attr mutable ""
par DemoNetworkEth.visualizer.mediumVisualizer interfaceFilter "\"*\""
attr mutable ""
par DemoNetworkEth.visualizer.mediumVisualizer packetFilter "(omnetpp::cValueHolder)holder: \"*\""
attr mutable ""
par DemoNetworkEth.visualizer.mediumVisualizer displaySignals false
par DemoNetworkEth.visualizer.mediumVisualizer signalColor "\"dark\""
par DemoNetworkEth.visualizer.mediumVisualizer signalPropagationAnimationSpeed "nan "
attr mutable ""
par DemoNetworkEth.visualizer.mediumVisualizer signalPropagationAnimationTime 1s
attr unit s
par DemoNetworkEth.visualizer.mediumVisualizer signalPropagationAdditionalTime 0s
attr unit s
par DemoNetworkEth.visualizer.mediumVisualizer signalTransmissionAnimationSpeed "nan "
attr mutable ""
par DemoNetworkEth.visualizer.mediumVisualizer signalTransmissionAnimationTime 1s
attr unit s
par DemoNetworkEth.visualizer.mediumVisualizer signalAnimationSpeedChangeTimeMode "\"realTime\""
attr enum realTime,animationTime,simulationTime
par DemoNetworkEth.visualizer.mediumVisualizer signalAnimationSpeedChangeTime 1s
attr unit s
par DemoNetworkEth.visualizer.mediumVisualizer displaySignalDepartures false
par DemoNetworkEth.visualizer.mediumVisualizer signalDepartureImage "\"misc/signal_departure.png\""
par DemoNetworkEth.visualizer.mediumVisualizer signalDeparturePlacementHint "\"topCenter\""
par DemoNetworkEth.visualizer.mediumVisualizer signalDeparturePlacementPriority 1
par DemoNetworkEth.visualizer.mediumVisualizer displaySignalArrivals false
par DemoNetworkEth.visualizer.mediumVisualizer signalArrivalImage "\"misc/signal_arrival.png\""
par DemoNetworkEth.visualizer.mediumVisualizer signalArrivalPlacementHint "\"topCenter\""
par DemoNetworkEth.visualizer.mediumVisualizer signalArrivalPlacementPriority -1
par DemoNetworkEth.visualizer.mediumVisualizer displayCommunicationRanges false
par DemoNetworkEth.visualizer.mediumVisualizer communicationRangeLineColor "\"blue\""
par DemoNetworkEth.visualizer.mediumVisualizer communicationRangeLineStyle "\"solid\""
par DemoNetworkEth.visualizer.mediumVisualizer communicationRangeLineWidth 1
par DemoNetworkEth.visualizer.mediumVisualizer displayInterferenceRanges false
par DemoNetworkEth.visualizer.mediumVisualizer interferenceRangeLineColor "\"gray\""
par DemoNetworkEth.visualizer.mediumVisualizer interferenceRangeLineStyle "\"solid\""
par DemoNetworkEth.visualizer.mediumVisualizer interferenceRangeLineWidth 1
par DemoNetworkEth.visualizer.mediumVisualizer autoPowerAxis true
par DemoNetworkEth.visualizer.mediumVisualizer signalMinPower "inf dBmW"
attr unit dBmW
par DemoNetworkEth.visualizer.mediumVisualizer signalMaxPower 0dBmW
attr unit dBmW
par DemoNetworkEth.visualizer.mediumVisualizer signalMinPowerDensity "inf dBmWpMHz"
attr unit dBmWpMHz
par DemoNetworkEth.visualizer.mediumVisualizer signalMaxPowerDensity "-inf dBmWpMHz"
attr unit dBmWpMHz
par DemoNetworkEth.visualizer.mediumVisualizer autoTimeAxis true
par DemoNetworkEth.visualizer.mediumVisualizer signalMinTime 0s
attr unit s
par DemoNetworkEth.visualizer.mediumVisualizer signalMaxTime 0s
attr unit s
par DemoNetworkEth.visualizer.mediumVisualizer autoFrequencyAxis true
par DemoNetworkEth.visualizer.mediumVisualizer signalMinFrequency "inf Hz"
attr unit Hz
par DemoNetworkEth.visualizer.mediumVisualizer signalMaxFrequency "-inf Hz"
attr unit Hz
par DemoNetworkEth.visualizer.mediumVisualizer displayMainPowerDensityMap false
par DemoNetworkEth.visualizer.mediumVisualizer mainPowerDensityMapPixmapDensity 1
par DemoNetworkEth.visualizer.mediumVisualizer mainPowerDensityMapMinX 0
par DemoNetworkEth.visualizer.mediumVisualizer mainPowerDensityMapMaxX "nan "
par DemoNetworkEth.visualizer.mediumVisualizer mainPowerDensityMapMinY 0
par DemoNetworkEth.visualizer.mediumVisualizer mainPowerDensityMapMaxY "nan "
par DemoNetworkEth.visualizer.mediumVisualizer mainPowerDensityMapZ 0
par DemoNetworkEth.visualizer.mediumVisualizer mainPowerDensityMapFigureXTickCount 3
par DemoNetworkEth.visualizer.mediumVisualizer mainPowerDensityMapFigureYTickCount 3
par DemoNetworkEth.visualizer.mediumVisualizer displayPowerDensityMaps false
par DemoNetworkEth.visualizer.mediumVisualizer powerDensityMapMode "\"auto\""
attr enum total,signal,auto
par DemoNetworkEth.visualizer.mediumVisualizer powerDensityMapPixelMode "\"mean\""
attr enum sample,partition,mean
par DemoNetworkEth.visualizer.mediumVisualizer powerDensityMapApproximationSize 10
par DemoNetworkEth.visualizer.mediumVisualizer powerDensityMapCenterFrequency "nan Hz"
attr mutable ""
attr unit Hz
par DemoNetworkEth.visualizer.mediumVisualizer powerDensityMapBandwidth 0Hz
attr mutable ""
attr unit Hz
par DemoNetworkEth.visualizer.mediumVisualizer powerDensityMapFigureWidth 200
par DemoNetworkEth.visualizer.mediumVisualizer powerDensityMapFigureHeight 120
par DemoNetworkEth.visualizer.mediumVisualizer powerDensityMapPixmapWidth 200
par DemoNetworkEth.visualizer.mediumVisualizer powerDensityMapPixmapHeight 120
par DemoNetworkEth.visualizer.mediumVisualizer powerDensityMapZ 0
par DemoNetworkEth.visualizer.mediumVisualizer powerDensityMapFigureXTickCount 3
par DemoNetworkEth.visualizer.mediumVisualizer powerDensityMapFigureYTickCount 3
par DemoNetworkEth.visualizer.mediumVisualizer displaySpectrums false
par DemoNetworkEth.visualizer.mediumVisualizer spectrumMode "\"auto\""
attr enum total,signal,auto
par DemoNetworkEth.visualizer.mediumVisualizer spectrumFigureWidth 200
par DemoNetworkEth.visualizer.mediumVisualizer spectrumFigureHeight 120
par DemoNetworkEth.visualizer.mediumVisualizer spectrumFigureXTickCount 3
par DemoNetworkEth.visualizer.mediumVisualizer spectrumFigureYTickCount 5
par DemoNetworkEth.visualizer.mediumVisualizer spectrumFigureInterpolationSize 5
par DemoNetworkEth.visualizer.mediumVisualizer spectrumPlacementHint "\"bottomCenter\""
par DemoNetworkEth.visualizer.mediumVisualizer spectrumPlacementPriority -1
par DemoNetworkEth.visualizer.mediumVisualizer displaySpectrograms false
par DemoNetworkEth.visualizer.mediumVisualizer spectrogramMode "\"auto\""
attr enum total,signal,auto
par DemoNetworkEth.visualizer.mediumVisualizer spectrogramPixelMode "\"mean\""
attr enum sample,partition,mean
par DemoNetworkEth.visualizer.mediumVisualizer spectrogramFigureWidth 200
par DemoNetworkEth.visualizer.mediumVisualizer spectrogramFigureHeight 120
par DemoNetworkEth.visualizer.mediumVisualizer spectrogramPixmapWidth 200
par DemoNetworkEth.visualizer.mediumVisualizer spectrogramPixmapHeight 120
par DemoNetworkEth.visualizer.mediumVisualizer spectrogramFigureXTickCount 3
par DemoNetworkEth.visualizer.mediumVisualizer spectrogramFigureYTickCount 5
par DemoNetworkEth.visualizer.mediumVisualizer spectrogramPlacementHint "\"bottomCenter\""
par DemoNetworkEth.visualizer.mediumVisualizer spectrogramPlacementPriority -1
par DemoNetworkEth.visualizer.mediumVisualizer zIndex 0
par DemoNetworkEth.visualizer.mediumVisualizer signalShape "\"ring\""
attr enum ring,sphere
par DemoNetworkEth.visualizer.mediumVisualizer signalOpacity 0.5
par DemoNetworkEth.visualizer.mediumVisualizer signalRingCount 20
par DemoNetworkEth.visualizer.mediumVisualizer signalRingSize 50m
attr unit m
par DemoNetworkEth.visualizer.mediumVisualizer signalFadingDistance 50m
attr unit m
par DemoNetworkEth.visualizer.mediumVisualizer signalFadingFactor 1.2
par DemoNetworkEth.visualizer.mediumVisualizer signalWaveCount 20
par DemoNetworkEth.visualizer.mediumVisualizer signalWaveLength 50m
attr unit m
par DemoNetworkEth.visualizer.mediumVisualizer signalWaveWidth 10m
attr unit m
par DemoNetworkEth.visualizer.mediumVisualizer signalWaveFadingAnimationSpeedFactor 1
par DemoNetworkEth.visualizer.mediumVisualizer displayCommunicationHeat false
par DemoNetworkEth.visualizer.obstacleLossVisualizer typename "\"inet.visualizer.canvas.physicallayer.TracingObstacleLossCanvasVisualizer\""
par DemoNetworkEth.visualizer.obstacleLossVisualizer visualizationTargetModule "\"^.^\""
par DemoNetworkEth.visualizer.obstacleLossVisualizer visualizationSubjectModule "\"^.^\""
par DemoNetworkEth.visualizer.obstacleLossVisualizer tags "\"\""
par DemoNetworkEth.visualizer.obstacleLossVisualizer displayIntersections false
par DemoNetworkEth.visualizer.obstacleLossVisualizer intersectionLineColor "\"red\""
par DemoNetworkEth.visualizer.obstacleLossVisualizer intersectionLineStyle "\"solid\""
par DemoNetworkEth.visualizer.obstacleLossVisualizer intersectionLineWidth 1
par DemoNetworkEth.visualizer.obstacleLossVisualizer displayFaceNormalVectors false
par DemoNetworkEth.visualizer.obstacleLossVisualizer faceNormalLineColor "\"grey\""
par DemoNetworkEth.visualizer.obstacleLossVisualizer faceNormalLineStyle "\"solid\""
par DemoNetworkEth.visualizer.obstacleLossVisualizer faceNormalLineWidth 1
par DemoNetworkEth.visualizer.obstacleLossVisualizer fadeOutMode "\"realTime\""
attr enum realTime,animationTime,simulationTime
par DemoNetworkEth.visualizer.obstacleLossVisualizer fadeOutTime 1s
attr unit s
par DemoNetworkEth.visualizer.obstacleLossVisualizer fadeOutAnimationSpeed 0
par DemoNetworkEth.visualizer.obstacleLossVisualizer zIndex 0
par DemoNetworkEth.visualizer.packetDropVisualizer typename "\"inet.visualizer.canvas.common.PacketDropCanvasVisualizer\""
par DemoNetworkEth.visualizer.packetDropVisualizer visualizationTargetModule "\"^.^\""
par DemoNetworkEth.visualizer.packetDropVisualizer visualizationSubjectModule "\"^.^\""
par DemoNetworkEth.visualizer.packetDropVisualizer tags "\"\""
par DemoNetworkEth.visualizer.packetDropVisualizer displayPacketDrops false
par DemoNetworkEth.visualizer.packetDropVisualizer nodeFilter "\"*\""
attr mutable ""
par DemoNetworkEth.visualizer.packetDropVisualizer interfaceFilter "\"*\""
attr mutable ""
par DemoNetworkEth.visualizer.packetDropVisualizer packetFilter "(omnetpp::cValueHolder)holder: \"*\""
attr mutable ""
par DemoNetworkEth.visualizer.packetDropVisualizer detailsFilter "\"*\""
attr mutable ""
par DemoNetworkEth.visualizer.packetDropVisualizer icon "\"msg/packet_s\""
par DemoNetworkEth.visualizer.packetDropVisualizer iconTintAmount 1
par DemoNetworkEth.visualizer.packetDropVisualizer iconTintColor "\"dark\""
par DemoNetworkEth.visualizer.packetDropVisualizer labelFormat "\"%n\""
attr mutable ""
par DemoNetworkEth.visualizer.packetDropVisualizer labelFont "\"<default>\""
par DemoNetworkEth.visualizer.packetDropVisualizer labelColor "\"black\""
par DemoNetworkEth.visualizer.packetDropVisualizer fadeOutMode "\"realTime\""
attr enum realTime,animationTime,simulationTime
par DemoNetworkEth.visualizer.packetDropVisualizer fadeOutTime 1s
attr unit s
par DemoNetworkEth.visualizer.packetDropVisualizer fadeOutAnimationSpeed 0
par DemoNetworkEth.visualizer.packetDropVisualizer zIndex 10
par DemoNetworkEth.visualizer.packetDropVisualizer dx 32
par DemoNetworkEth.visualizer.packetDropVisualizer dy 64
par DemoNetworkEth.visualizer.packetFlowVisualizer typename "\"inet.visualizer.canvas.flow.PacketFlowCanvasVisualizer\""
par DemoNetworkEth.visualizer.packetFlowVisualizer visualizationTargetModule "\"^.^\""
par DemoNetworkEth.visualizer.packetFlowVisualizer visualizationSubjectModule "\"^.^\""
par DemoNetworkEth.visualizer.packetFlowVisualizer tags "\"\""
par DemoNetworkEth.visualizer.packetFlowVisualizer displayRoutes false
par DemoNetworkEth.visualizer.packetFlowVisualizer startPathSignal "\"packetFlowStarted\""
par DemoNetworkEth.visualizer.packetFlowVisualizer extendPathSignal "\"packetReceivedFromLower\""
par DemoNetworkEth.visualizer.packetFlowVisualizer endPathSignal "\"packetFlowEnded\""
par DemoNetworkEth.visualizer.packetFlowVisualizer nodeFilter "\"*\""
attr mutable ""
par DemoNetworkEth.visualizer.packetFlowVisualizer packetFilter "(omnetpp::cValueHolder)holder: \"*\""
attr mutable ""
par DemoNetworkEth.visualizer.packetFlowVisualizer lineColor "\"dark\""
par DemoNetworkEth.visualizer.packetFlowVisualizer lineStyle "\"dashed\""
par DemoNetworkEth.visualizer.packetFlowVisualizer lineWidth 3
par DemoNetworkEth.visualizer.packetFlowVisualizer lineSmooth false
par DemoNetworkEth.visualizer.packetFlowVisualizer lineShift 16
par DemoNetworkEth.visualizer.packetFlowVisualizer lineShiftMode "\"normal\""
par DemoNetworkEth.visualizer.packetFlowVisualizer lineContactSpacing 3
par DemoNetworkEth.visualizer.packetFlowVisualizer lineContactMode "\"rectangular\""
attr enum circular,rectangular
par DemoNetworkEth.visualizer.packetFlowVisualizer labelFormat "\"%L %p pk (%l)\""
par DemoNetworkEth.visualizer.packetFlowVisualizer labelFont "\"<default>, 8px\""
par DemoNetworkEth.visualizer.packetFlowVisualizer labelColor "\"\""
par DemoNetworkEth.visualizer.packetFlowVisualizer fadeOutMode "\"realTime\""
attr enum realTime,animationTime,simulationTime
par DemoNetworkEth.visualizer.packetFlowVisualizer fadeOutTime 0s
attr unit s
par DemoNetworkEth.visualizer.packetFlowVisualizer fadeOutAnimationSpeed 0
par DemoNetworkEth.visualizer.packetFlowVisualizer zIndex 4
par DemoNetworkEth.visualizer.queueVisualizer typename "\"inet.visualizer.canvas.common.QueueCanvasVisualizer\""
par DemoNetworkEth.visualizer.queueVisualizer visualizationTargetModule "\"^.^\""
par DemoNetworkEth.visualizer.queueVisualizer visualizationSubjectModule "\"^.^\""
par DemoNetworkEth.visualizer.queueVisualizer tags "\"\""
par DemoNetworkEth.visualizer.queueVisualizer networkNodeVisualizerModule "\"^.networkNodeVisualizer\""
par DemoNetworkEth.visualizer.queueVisualizer displayQueues false
par DemoNetworkEth.visualizer.queueVisualizer queueFilter "\"**\""
par DemoNetworkEth.visualizer.queueVisualizer color "\"blue\""
par DemoNetworkEth.visualizer.queueVisualizer width 8
par DemoNetworkEth.visualizer.queueVisualizer height 24
par DemoNetworkEth.visualizer.queueVisualizer spacing 2
par DemoNetworkEth.visualizer.queueVisualizer placementHint "\"right\""
par DemoNetworkEth.visualizer.queueVisualizer placementPriority 0
par DemoNetworkEth.visualizer.queueVisualizer zIndex 10
par DemoNetworkEth.visualizer.gateScheduleVisualizer typename "\"inet.visualizer.canvas.common.GateScheduleCanvasVisualizer\""
par DemoNetworkEth.visualizer.gateScheduleVisualizer visualizationTargetModule "\"^.^\""
par DemoNetworkEth.visualizer.gateScheduleVisualizer visualizationSubjectModule "\"^.^\""
par DemoNetworkEth.visualizer.gateScheduleVisualizer tags "\"\""
par DemoNetworkEth.visualizer.gateScheduleVisualizer networkNodeVisualizerModule "\"^.networkNodeVisualizer\""
par DemoNetworkEth.visualizer.gateScheduleVisualizer displayGateSchedules false
par DemoNetworkEth.visualizer.gateScheduleVisualizer labelFormat "\"%i %D\""
par DemoNetworkEth.visualizer.gateScheduleVisualizer gateFilter "\"**\""
par DemoNetworkEth.visualizer.gateScheduleVisualizer width 100
par DemoNetworkEth.visualizer.gateScheduleVisualizer height 8
par DemoNetworkEth.visualizer.gateScheduleVisualizer spacing 2
par DemoNetworkEth.visualizer.gateScheduleVisualizer placementHint "\"right\""
par DemoNetworkEth.visualizer.gateScheduleVisualizer placementPriority 0
par DemoNetworkEth.visualizer.gateScheduleVisualizer displayDuration 0s
attr mutable ""
attr unit s
par DemoNetworkEth.visualizer.gateScheduleVisualizer currentTimePosition 50
par DemoNetworkEth.visualizer.gateScheduleVisualizer zIndex 10
par DemoNetworkEth.visualizer.radioVisualizer typename "\"inet.visualizer.canvas.physicallayer.RadioCanvasVisualizer\""
par DemoNetworkEth.visualizer.radioVisualizer visualizationTargetModule "\"^.^\""
par DemoNetworkEth.visualizer.radioVisualizer visualizationSubjectModule "\"^.^\""
par DemoNetworkEth.visualizer.radioVisualizer tags "\"\""
par DemoNetworkEth.visualizer.radioVisualizer networkNodeVisualizerModule "\"^.networkNodeVisualizer\""
par DemoNetworkEth.visualizer.radioVisualizer displayRadios false
par DemoNetworkEth.visualizer.radioVisualizer displayRadioMode true
par DemoNetworkEth.visualizer.radioVisualizer displayReceptionState true
par DemoNetworkEth.visualizer.radioVisualizer displayTransmissionState true
par DemoNetworkEth.visualizer.radioVisualizer displayAntennaLobes false
par DemoNetworkEth.visualizer.radioVisualizer radioFilter "\"**\""
attr mutable ""
par DemoNetworkEth.visualizer.radioVisualizer radioModeImages "\"block/process_vs block/timer_vs block/wrx_vs block/wtx_vs block/wrxtx_vs block/cogwheel_vs\""
par DemoNetworkEth.visualizer.radioVisualizer receptionStateImages "\"- - misc/receiving misc/receiving\""
par DemoNetworkEth.visualizer.radioVisualizer transmissionStateImages "\"- - misc/transmitting\""
par DemoNetworkEth.visualizer.radioVisualizer width 16
par DemoNetworkEth.visualizer.radioVisualizer height 16
par DemoNetworkEth.visualizer.radioVisualizer placementHint "\"bottomRight\""
par DemoNetworkEth.visualizer.radioVisualizer placementPriority 0
par DemoNetworkEth.visualizer.radioVisualizer antennaLobeNormalize false
par DemoNetworkEth.visualizer.radioVisualizer antennaLobeRelativeLabels false
par DemoNetworkEth.visualizer.radioVisualizer antennaLobePlaneGlobal true
par DemoNetworkEth.visualizer.radioVisualizer antennaLobePlane "\"view\""
attr enum view,xy,xz,yz
par DemoNetworkEth.visualizer.radioVisualizer antennaLobeMode "\"logarithmic\""
attr enum logarithmic,linear
par DemoNetworkEth.visualizer.radioVisualizer antennaLobeLogarithmicBase 10
par DemoNetworkEth.visualizer.radioVisualizer antennaLobeLogarithmicScale 100
par DemoNetworkEth.visualizer.radioVisualizer antennaLobeRadius 100
par DemoNetworkEth.visualizer.radioVisualizer antennaLobeStep 10deg
attr unit deg
par DemoNetworkEth.visualizer.radioVisualizer antennaLobeOpacity 0.25
par DemoNetworkEth.visualizer.radioVisualizer antennaLobeLineSmooth true
par DemoNetworkEth.visualizer.radioVisualizer antennaLobeLineColor "\"black\""
par DemoNetworkEth.visualizer.radioVisualizer antennaLobeLineStyle "\"solid\""
par DemoNetworkEth.visualizer.radioVisualizer antennaLobeLineWidth 1
par DemoNetworkEth.visualizer.radioVisualizer antennaLobeFillColor "\"white\""
par DemoNetworkEth.visualizer.radioVisualizer zIndex 10
par DemoNetworkEth.visualizer.physicalLinkVisualizer typename "\"inet.visualizer.canvas.physicallayer.PhysicalLinkCanvasVisualizer\""
par DemoNetworkEth.visualizer.physicalLinkVisualizer visualizationTargetModule "\"^.^\""
par DemoNetworkEth.visualizer.physicalLinkVisualizer visualizationSubjectModule "\"^.^\""
par DemoNetworkEth.visualizer.physicalLinkVisualizer tags "\"\""
par DemoNetworkEth.visualizer.physicalLinkVisualizer displayLinks false
par DemoNetworkEth.visualizer.physicalLinkVisualizer activityLevel "\"service\""
attr enum service,peer,protocol
par DemoNetworkEth.visualizer.physicalLinkVisualizer nodeFilter "\"*\""
attr mutable ""
par DemoNetworkEth.visualizer.physicalLinkVisualizer interfaceFilter "\"*\""
attr mutable ""
par DemoNetworkEth.visualizer.physicalLinkVisualizer packetFilter "(omnetpp::cValueHolder)holder: \"*\""
attr mutable ""
par DemoNetworkEth.visualizer.physicalLinkVisualizer lineColor "\"olive\""
par DemoNetworkEth.visualizer.physicalLinkVisualizer lineStyle "\"dotted\""
par DemoNetworkEth.visualizer.physicalLinkVisualizer lineWidth 3
par DemoNetworkEth.visualizer.physicalLinkVisualizer lineShift 16
par DemoNetworkEth.visualizer.physicalLinkVisualizer lineShiftMode "\"normal\""
par DemoNetworkEth.visualizer.physicalLinkVisualizer lineContactSpacing 3
par DemoNetworkEth.visualizer.physicalLinkVisualizer lineContactMode "\"rectangular\""
attr enum circular,rectangular
par DemoNetworkEth.visualizer.physicalLinkVisualizer labelFormat "\"%n\""
par DemoNetworkEth.visualizer.physicalLinkVisualizer labelFont "\"<default>, 8px\""
par DemoNetworkEth.visualizer.physicalLinkVisualizer labelColor "\"olive\""
par DemoNetworkEth.visualizer.physicalLinkVisualizer fadeOutMode "\"realTime\""
attr enum realTime,animationTime,simulationTime
par DemoNetworkEth.visualizer.physicalLinkVisualizer fadeOutTime 1s
attr unit s
par DemoNetworkEth.visualizer.physicalLinkVisualizer fadeOutAnimationSpeed 0
par DemoNetworkEth.visualizer.physicalLinkVisualizer holdAnimationTime 0s
attr unit s
par DemoNetworkEth.visualizer.physicalLinkVisualizer zIndex 1
par DemoNetworkEth.visualizer.interfaceTableVisualizer typename "\"inet.visualizer.canvas.linklayer.InterfaceTableCanvasVisualizer\""
par DemoNetworkEth.visualizer.interfaceTableVisualizer visualizationTargetModule "\"^.^\""
par DemoNetworkEth.visualizer.interfaceTableVisualizer visualizationSubjectModule "\"^.^\""
par DemoNetworkEth.visualizer.interfaceTableVisualizer tags "\"\""
par DemoNetworkEth.visualizer.interfaceTableVisualizer networkNodeVisualizerModule "\"^.networkNodeVisualizer\""
par DemoNetworkEth.visualizer.interfaceTableVisualizer displayInterfaceTables true
par DemoNetworkEth.visualizer.interfaceTableVisualizer displayWiredInterfacesAtConnections true
par DemoNetworkEth.visualizer.interfaceTableVisualizer displayBackground true
par DemoNetworkEth.visualizer.interfaceTableVisualizer nodeFilter "\"*\""
attr mutable ""
par DemoNetworkEth.visualizer.interfaceTableVisualizer interfaceFilter "\"not(lo*)\""
attr mutable ""
par DemoNetworkEth.visualizer.interfaceTableVisualizer format "\"%N %t %a\""
attr mutable ""
par DemoNetworkEth.visualizer.interfaceTableVisualizer placementHint "\"top\""
par DemoNetworkEth.visualizer.interfaceTableVisualizer placementPriority 0
par DemoNetworkEth.visualizer.interfaceTableVisualizer font "\"<default>\""
par DemoNetworkEth.visualizer.interfaceTableVisualizer textColor "\"#902020\""
par DemoNetworkEth.visualizer.interfaceTableVisualizer backgroundColor "\"white\""
par DemoNetworkEth.visualizer.interfaceTableVisualizer opacity 1
par DemoNetworkEth.visualizer.interfaceTableVisualizer zIndex 10
par DemoNetworkEth.visualizer.dataLinkVisualizer typename "\"inet.visualizer.canvas.linklayer.DataLinkCanvasVisualizer\""
par DemoNetworkEth.visualizer.dataLinkVisualizer visualizationTargetModule "\"^.^\""
par DemoNetworkEth.visualizer.dataLinkVisualizer visualizationSubjectModule "\"^.^\""
par DemoNetworkEth.visualizer.dataLinkVisualizer tags "\"\""
par DemoNetworkEth.visualizer.dataLinkVisualizer displayLinks false
par DemoNetworkEth.visualizer.dataLinkVisualizer activityLevel "\"service\""
attr enum service,peer,protocol
par DemoNetworkEth.visualizer.dataLinkVisualizer nodeFilter "\"*\""
attr mutable ""
par DemoNetworkEth.visualizer.dataLinkVisualizer interfaceFilter "\"*\""
attr mutable ""
par DemoNetworkEth.visualizer.dataLinkVisualizer packetFilter "(omnetpp::cValueHolder)holder: \"*\""
attr mutable ""
par DemoNetworkEth.visualizer.dataLinkVisualizer lineColor "\"darkcyan\""
par DemoNetworkEth.visualizer.dataLinkVisualizer lineStyle "\"solid\""
par DemoNetworkEth.visualizer.dataLinkVisualizer lineWidth 3
par DemoNetworkEth.visualizer.dataLinkVisualizer lineShift 16
par DemoNetworkEth.visualizer.dataLinkVisualizer lineShiftMode "\"normal\""
par DemoNetworkEth.visualizer.dataLinkVisualizer lineContactSpacing 3
par DemoNetworkEth.visualizer.dataLinkVisualizer lineContactMode "\"rectangular\""
attr enum circular,rectangular
par DemoNetworkEth.visualizer.dataLinkVisualizer labelFormat "\"%n\""
par DemoNetworkEth.visualizer.dataLinkVisualizer labelFont "\"<default>, 8px\""
par DemoNetworkEth.visualizer.dataLinkVisualizer labelColor "\"darkcyan\""
par DemoNetworkEth.visualizer.dataLinkVisualizer fadeOutMode "\"realTime\""
attr enum realTime,animationTime,simulationTime
par DemoNetworkEth.visualizer.dataLinkVisualizer fadeOutTime 1s
attr unit s
par DemoNetworkEth.visualizer.dataLinkVisualizer fadeOutAnimationSpeed 0
par DemoNetworkEth.visualizer.dataLinkVisualizer holdAnimationTime 0s
attr unit s
par DemoNetworkEth.visualizer.dataLinkVisualizer zIndex 2
par DemoNetworkEth.visualizer.linkBreakVisualizer typename "\"inet.visualizer.canvas.linklayer.LinkBreakCanvasVisualizer\""
par DemoNetworkEth.visualizer.linkBreakVisualizer visualizationTargetModule "\"^.^\""
par DemoNetworkEth.visualizer.linkBreakVisualizer visualizationSubjectModule "\"^.^\""
par DemoNetworkEth.visualizer.linkBreakVisualizer tags "\"\""
par DemoNetworkEth.visualizer.linkBreakVisualizer displayLinkBreaks false
par DemoNetworkEth.visualizer.linkBreakVisualizer nodeFilter "\"*\""
attr mutable ""
par DemoNetworkEth.visualizer.linkBreakVisualizer interfaceFilter "\"*\""
attr mutable ""
par DemoNetworkEth.visualizer.linkBreakVisualizer packetFilter "(omnetpp::cValueHolder)holder: \"*\""
attr mutable ""
par DemoNetworkEth.visualizer.linkBreakVisualizer icon "\"status/stop\""
par DemoNetworkEth.visualizer.linkBreakVisualizer iconTintAmount 0
par DemoNetworkEth.visualizer.linkBreakVisualizer iconTintColor "\"\""
par DemoNetworkEth.visualizer.linkBreakVisualizer fadeOutMode "\"realTime\""
attr enum realTime,animationTime,simulationTime
par DemoNetworkEth.visualizer.linkBreakVisualizer fadeOutTime 1s
attr unit s
par DemoNetworkEth.visualizer.linkBreakVisualizer fadeOutAnimationSpeed 0
par DemoNetworkEth.visualizer.linkBreakVisualizer zIndex 2
par DemoNetworkEth.visualizer.ieee80211Visualizer typename "\"inet.visualizer.canvas.linklayer.Ieee80211CanvasVisualizer\""
par DemoNetworkEth.visualizer.ieee80211Visualizer visualizationTargetModule "\"^.^\""
par DemoNetworkEth.visualizer.ieee80211Visualizer visualizationSubjectModule "\"^.^\""
par DemoNetworkEth.visualizer.ieee80211Visualizer tags "\"\""
par DemoNetworkEth.visualizer.ieee80211Visualizer networkNodeVisualizerModule "\"^.networkNodeVisualizer\""
par DemoNetworkEth.visualizer.ieee80211Visualizer displayAssociations false
par DemoNetworkEth.visualizer.ieee80211Visualizer nodeFilter "\"*\""
attr mutable ""
par DemoNetworkEth.visualizer.ieee80211Visualizer interfaceFilter "\"*\""
attr mutable ""
par DemoNetworkEth.visualizer.ieee80211Visualizer minPower -85dBm
attr unit dBm
par DemoNetworkEth.visualizer.ieee80211Visualizer maxPower -50dBm
attr unit dBm
par DemoNetworkEth.visualizer.ieee80211Visualizer icons "\"misc/signal_power_0 misc/signal_power_1 misc/signal_power_2 misc/signal_power_3\""
par DemoNetworkEth.visualizer.ieee80211Visualizer iconColor "\"dark\""
par DemoNetworkEth.visualizer.ieee80211Visualizer labelFont "\"<default>\""
par DemoNetworkEth.visualizer.ieee80211Visualizer labelColor "\"black\""
par DemoNetworkEth.visualizer.ieee80211Visualizer placementHint "\"top\""
par DemoNetworkEth.visualizer.ieee80211Visualizer placementPriority 0
par DemoNetworkEth.visualizer.ieee80211Visualizer zIndex 2
par DemoNetworkEth.visualizer.networkRouteVisualizer typename "\"inet.visualizer.canvas.networklayer.NetworkRouteCanvasVisualizer\""
par DemoNetworkEth.visualizer.networkRouteVisualizer visualizationTargetModule "\"^.^\""
par DemoNetworkEth.visualizer.networkRouteVisualizer visualizationSubjectModule "\"^.^\""
par DemoNetworkEth.visualizer.networkRouteVisualizer tags "\"\""
par DemoNetworkEth.visualizer.networkRouteVisualizer displayRoutes false
par DemoNetworkEth.visualizer.networkRouteVisualizer startPathSignal "\"packetReceivedFromUpper\""
par DemoNetworkEth.visualizer.networkRouteVisualizer extendPathSignal "\"packetReceivedFromLower\""
par DemoNetworkEth.visualizer.networkRouteVisualizer endPathSignal "\"packetSentToUpper\""
par DemoNetworkEth.visualizer.networkRouteVisualizer nodeFilter "\"*\""
attr mutable ""
par DemoNetworkEth.visualizer.networkRouteVisualizer packetFilter "(omnetpp::cValueHolder)holder: \"*\""
attr mutable ""
par DemoNetworkEth.visualizer.networkRouteVisualizer lineColor "\"dark\""
par DemoNetworkEth.visualizer.networkRouteVisualizer lineStyle "\"solid\""
par DemoNetworkEth.visualizer.networkRouteVisualizer lineWidth 3
par DemoNetworkEth.visualizer.networkRouteVisualizer lineSmooth false
par DemoNetworkEth.visualizer.networkRouteVisualizer lineShift 16
par DemoNetworkEth.visualizer.networkRouteVisualizer lineShiftMode "\"normal\""
par DemoNetworkEth.visualizer.networkRouteVisualizer lineContactSpacing 3
par DemoNetworkEth.visualizer.networkRouteVisualizer lineContactMode "\"rectangular\""
attr enum circular,rectangular
par DemoNetworkEth.visualizer.networkRouteVisualizer labelFormat "\"%n\""
par DemoNetworkEth.visualizer.networkRouteVisualizer labelFont "\"<default>, 8px\""
par DemoNetworkEth.visualizer.networkRouteVisualizer labelColor "\"\""
par DemoNetworkEth.visualizer.networkRouteVisualizer fadeOutMode "\"realTime\""
attr enum realTime,animationTime,simulationTime
par DemoNetworkEth.visualizer.networkRouteVisualizer fadeOutTime 1s
attr unit s
par DemoNetworkEth.visualizer.networkRouteVisualizer fadeOutAnimationSpeed 0
par DemoNetworkEth.visualizer.networkRouteVisualizer zIndex 3
par DemoNetworkEth.visualizer.routingTableVisualizer typename "\"inet.visualizer.canvas.networklayer.RoutingTableCanvasVisualizer\""
par DemoNetworkEth.visualizer.routingTableVisualizer visualizationTargetModule "\"^.^\""
par DemoNetworkEth.visualizer.routingTableVisualizer visualizationSubjectModule "\"^.^\""
par DemoNetworkEth.visualizer.routingTableVisualizer tags "\"\""
par DemoNetworkEth.visualizer.routingTableVisualizer displayRoutingTables false
par DemoNetworkEth.visualizer.routingTableVisualizer displayRoutesIndividually true
par DemoNetworkEth.visualizer.routingTableVisualizer displayLabels true
par DemoNetworkEth.visualizer.routingTableVisualizer destinationFilter "\"*\""
attr mutable ""
par DemoNetworkEth.visualizer.routingTableVisualizer nodeFilter "\"*\""
attr mutable ""
par DemoNetworkEth.visualizer.routingTableVisualizer lineColor "\"black\""
par DemoNetworkEth.visualizer.routingTableVisualizer lineStyle "\"solid\""
par DemoNetworkEth.visualizer.routingTableVisualizer lineWidth 2
par DemoNetworkEth.visualizer.routingTableVisualizer lineShift 16
par DemoNetworkEth.visualizer.routingTableVisualizer lineShiftMode "\"normal\""
par DemoNetworkEth.visualizer.routingTableVisualizer lineContactSpacing 3
par DemoNetworkEth.visualizer.routingTableVisualizer lineContactMode "\"rectangular\""
attr enum circular,rectangular
par DemoNetworkEth.visualizer.routingTableVisualizer labelFormat "\"%d/%m -> %g (%n)\""
attr mutable ""
par DemoNetworkEth.visualizer.routingTableVisualizer labelFont "\"<default>, 8px\""
par DemoNetworkEth.visualizer.routingTableVisualizer labelColor "\"black\""
par DemoNetworkEth.visualizer.routingTableVisualizer zIndex 0
par DemoNetworkEth.visualizer.transportRouteVisualizer typename "\"inet.visualizer.canvas.transportlayer.TransportRouteCanvasVisualizer\""
par DemoNetworkEth.visualizer.transportRouteVisualizer visualizationTargetModule "\"^.^\""
par DemoNetworkEth.visualizer.transportRouteVisualizer visualizationSubjectModule "\"^.^\""
par DemoNetworkEth.visualizer.transportRouteVisualizer tags "\"\""
par DemoNetworkEth.visualizer.transportRouteVisualizer displayRoutes false
par DemoNetworkEth.visualizer.transportRouteVisualizer startPathSignal "\"packetReceivedFromUpper\""
par DemoNetworkEth.visualizer.transportRouteVisualizer extendPathSignal "\"packetReceivedFromLower\""
par DemoNetworkEth.visualizer.transportRouteVisualizer endPathSignal "\"packetSentToUpper\""
par DemoNetworkEth.visualizer.transportRouteVisualizer nodeFilter "\"*\""
attr mutable ""
par DemoNetworkEth.visualizer.transportRouteVisualizer packetFilter "(omnetpp::cValueHolder)holder: \"*\""
attr mutable ""
par DemoNetworkEth.visualizer.transportRouteVisualizer lineColor "\"dark\""
par DemoNetworkEth.visualizer.transportRouteVisualizer lineStyle "\"solid\""
par DemoNetworkEth.visualizer.transportRouteVisualizer lineWidth 3
par DemoNetworkEth.visualizer.transportRouteVisualizer lineSmooth false
par DemoNetworkEth.visualizer.transportRouteVisualizer lineShift 16
par DemoNetworkEth.visualizer.transportRouteVisualizer lineShiftMode "\"normal\""
par DemoNetworkEth.visualizer.transportRouteVisualizer lineContactSpacing 3
par DemoNetworkEth.visualizer.transportRouteVisualizer lineContactMode "\"rectangular\""
attr enum circular,rectangular
par DemoNetworkEth.visualizer.transportRouteVisualizer labelFormat "\"%n\""
par DemoNetworkEth.visualizer.transportRouteVisualizer labelFont "\"<default>, 8px\""
par DemoNetworkEth.visualizer.transportRouteVisualizer labelColor "\"\""
par DemoNetworkEth.visualizer.transportRouteVisualizer fadeOutMode "\"realTime\""
attr enum realTime,animationTime,simulationTime
par DemoNetworkEth.visualizer.transportRouteVisualizer fadeOutTime 1s
attr unit s
par DemoNetworkEth.visualizer.transportRouteVisualizer fadeOutAnimationSpeed 0
par DemoNetworkEth.visualizer.transportRouteVisualizer zIndex 4
par DemoNetworkEth.visualizer.transportConnectionVisualizer typename "\"inet.visualizer.canvas.transportlayer.TransportConnectionCanvasVisualizer\""
par DemoNetworkEth.visualizer.transportConnectionVisualizer visualizationTargetModule "\"^.^\""
par DemoNetworkEth.visualizer.transportConnectionVisualizer visualizationSubjectModule "\"^.^\""
par DemoNetworkEth.visualizer.transportConnectionVisualizer tags "\"\""
par DemoNetworkEth.visualizer.transportConnectionVisualizer networkNodeVisualizerModule "\"^.networkNodeVisualizer\""
par DemoNetworkEth.visualizer.transportConnectionVisualizer displayTransportConnections false
par DemoNetworkEth.visualizer.transportConnectionVisualizer sourceNodeFilter "\"*\""
attr mutable ""
par DemoNetworkEth.visualizer.transportConnectionVisualizer sourcePortFilter "\"*\""
attr mutable ""
par DemoNetworkEth.visualizer.transportConnectionVisualizer destinationNodeFilter "\"*\""
attr mutable ""
par DemoNetworkEth.visualizer.transportConnectionVisualizer destinationPortFilter "\"*\""
attr mutable ""
par DemoNetworkEth.visualizer.transportConnectionVisualizer icon "\"misc/marker_s\""
par DemoNetworkEth.visualizer.transportConnectionVisualizer iconColor "\"dark\""
par DemoNetworkEth.visualizer.transportConnectionVisualizer labelFont "\"<default>\""
par DemoNetworkEth.visualizer.transportConnectionVisualizer labelColor "\"black\""
par DemoNetworkEth.visualizer.transportConnectionVisualizer placementHint "\"top\""
par DemoNetworkEth.visualizer.transportConnectionVisualizer placementPriority 0
par DemoNetworkEth.visualizer.transportConnectionVisualizer zIndex 4
par DemoNetworkEth.visualizer.failureProtectionConfigurationVisualizer typename "\"inet.visualizer.canvas.configurator.FailureProtectionConfigurationCanvasVisualizer\""
par DemoNetworkEth.visualizer.failureProtectionConfigurationVisualizer visualizationTargetModule "\"^.^\""
par DemoNetworkEth.visualizer.failureProtectionConfigurationVisualizer visualizationSubjectModule "\"^.^\""
par DemoNetworkEth.visualizer.failureProtectionConfigurationVisualizer tags "\"\""
par DemoNetworkEth.visualizer.failureProtectionConfigurationVisualizer displayTrees false
par DemoNetworkEth.visualizer.failureProtectionConfigurationVisualizer lineColor "\"dark\""
par DemoNetworkEth.visualizer.failureProtectionConfigurationVisualizer lineStyle "\"solid\""
par DemoNetworkEth.visualizer.failureProtectionConfigurationVisualizer lineWidth 3
par DemoNetworkEth.visualizer.failureProtectionConfigurationVisualizer lineSmooth false
par DemoNetworkEth.visualizer.failureProtectionConfigurationVisualizer lineShift 16
par DemoNetworkEth.visualizer.failureProtectionConfigurationVisualizer lineShiftMode "\"normal\""
par DemoNetworkEth.visualizer.failureProtectionConfigurationVisualizer lineContactSpacing 3
par DemoNetworkEth.visualizer.failureProtectionConfigurationVisualizer lineContactMode "\"rectangular\""
attr enum circular,rectangular
par DemoNetworkEth.visualizer.failureProtectionConfigurationVisualizer failureProtectionConfiguratorModule "\"failureProtectionConfigurator\""
par DemoNetworkEth.visualizer.failureProtectionConfigurationVisualizer streamFilter "\"*\""
par DemoNetworkEth.visualizer.failureProtectionConfigurationVisualizer zIndex 3
par DemoNetworkEth.visualizer.streamRedundancyConfigurationVisualizer typename "\"inet.visualizer.canvas.configurator.StreamRedundancyConfigurationCanvasVisualizer\""
par DemoNetworkEth.visualizer.streamRedundancyConfigurationVisualizer visualizationTargetModule "\"^.^\""
par DemoNetworkEth.visualizer.streamRedundancyConfigurationVisualizer visualizationSubjectModule "\"^.^\""
par DemoNetworkEth.visualizer.streamRedundancyConfigurationVisualizer tags "\"\""
par DemoNetworkEth.visualizer.streamRedundancyConfigurationVisualizer displayTrees false
par DemoNetworkEth.visualizer.streamRedundancyConfigurationVisualizer lineColor "\"dark\""
par DemoNetworkEth.visualizer.streamRedundancyConfigurationVisualizer lineStyle "\"solid\""
par DemoNetworkEth.visualizer.streamRedundancyConfigurationVisualizer lineWidth 3
par DemoNetworkEth.visualizer.streamRedundancyConfigurationVisualizer lineSmooth false
par DemoNetworkEth.visualizer.streamRedundancyConfigurationVisualizer lineShift 16
par DemoNetworkEth.visualizer.streamRedundancyConfigurationVisualizer lineShiftMode "\"normal\""
par DemoNetworkEth.visualizer.streamRedundancyConfigurationVisualizer lineContactSpacing 3
par DemoNetworkEth.visualizer.streamRedundancyConfigurationVisualizer lineContactMode "\"rectangular\""
attr enum circular,rectangular
par DemoNetworkEth.visualizer.streamRedundancyConfigurationVisualizer streamRedundancyConfiguratorModule "\"streamRedundancyConfigurator\""
par DemoNetworkEth.visualizer.streamRedundancyConfigurationVisualizer streamFilter "\"*\""
par DemoNetworkEth.visualizer.streamRedundancyConfigurationVisualizer zIndex 3
par DemoNetworkEth.visualizer typename "\"inet.visualizer.canvas.integrated.IntegratedCanvasVisualizer\""
par DemoNetworkEth.r1.ethg$i[0].channel typename "\"ned.IdealChannel\""
par DemoNetworkEth.r1.eth[0].phys$o.channel typename "\"ned.IdealChannel\""
par DemoNetworkEth.r1.ethg$i[1].channel typename "\"ned.IdealChannel\""
par DemoNetworkEth.r1.eth[1].phys$o.channel typename "\"ned.IdealChannel\""
par DemoNetworkEth.r1.ethg$i[2].channel typename "\"ned.IdealChannel\""
par DemoNetworkEth.r1.eth[2].phys$o.channel typename "\"ned.IdealChannel\""
par DemoNetworkEth.r1.interfaceTable typename "\"inet.networklayer.common.InterfaceTable\""
par DemoNetworkEth.r1.interfaceTable displayAddresses false
par DemoNetworkEth.r1.cb typename "\"inet.common.MessageDispatcher\""
par DemoNetworkEth.r1.cb displayStringTextFormat "\"processed %p pk (%l)\""
par DemoNetworkEth.r1.cb forwardServiceRegistration true
par DemoNetworkEth.r1.cb forwardProtocolRegistration true
par DemoNetworkEth.r1.bl typename "\"inet.common.MessageDispatcher\""
par DemoNetworkEth.r1.bl displayStringTextFormat "\"processed %p pk (%l)\""
par DemoNetworkEth.r1.bl forwardServiceRegistration true
par DemoNetworkEth.r1.bl forwardProtocolRegistration true
par DemoNetworkEth.r1.ethernet typename "\"inet.linklayer.ethernet.basic.EthernetEncapsulation\""
par DemoNetworkEth.r1.ethernet registerProtocol true
par DemoNetworkEth.r1.ethernet interfaceTableModule "\"DemoNetworkEth.r1.interfaceTable\""
par DemoNetworkEth.r1.ethernet fcsMode "\"declared\""
attr enum declared,computed
par DemoNetworkEth.r1.ethernet stopOperationExtraTime -1s
attr unit s
par DemoNetworkEth.r1.ethernet stopOperationTimeout 2s
attr unit s
scalar DemoNetworkEth.r1.ethernet pauseSent:count 0
attr recordingmode count
attr title "pause sent, count"
scalar DemoNetworkEth.r1.ethernet pauseSent:sum 0
attr recordingmode sum
attr title "pause sent, sum"
scalar DemoNetworkEth.r1.ethernet decapPk:count 1
attr interpolationmode none
attr recordingmode count
attr source decapPk
attr title "packets decapsulated, count"
scalar DemoNetworkEth.r1.ethernet decapPk:sum(packetBytes) 64
attr interpolationmode none
attr recordingmode sum(packetBytes)
attr source decapPk
attr title "packets decapsulated, sum(packetBytes)"
scalar DemoNetworkEth.r1.ethernet encapPk:count 3
attr interpolationmode none
attr recordingmode count
attr source encapPk
attr title "packets encapsulated, count"
scalar DemoNetworkEth.r1.ethernet encapPk:sum(packetBytes) 192
attr interpolationmode none
attr recordingmode sum(packetBytes)
attr source encapPk
attr title "packets encapsulated, sum(packetBytes)"
par DemoNetworkEth.r1.li typename "\"inet.common.MessageDispatcher\""
par DemoNetworkEth.r1.li displayStringTextFormat "\"processed %p pk (%l)\""
par DemoNetworkEth.r1.li forwardServiceRegistration true
par DemoNetworkEth.r1.li forwardProtocolRegistration true
par DemoNetworkEth.r1.lo[0].upperLayerIn.channel typename "\"ned.IdealChannel\""
par DemoNetworkEth.r1.lo[0].lo.upperLayerOut.channel typename "\"ned.IdealChannel\""
par DemoNetworkEth.r1.lo[0].lo typename "\"inet.linklayer.loopback.Loopback\""
par DemoNetworkEth.r1.lo[0].lo interfaceTableModule "\"DemoNetworkEth.r1.interfaceTable\""
par DemoNetworkEth.r1.lo[0].lo mtu 4470B
attr unit B
scalar DemoNetworkEth.r1.lo[0].lo rcvdPkFromHl:count 0
attr interpolationmode none
attr recordingmode count
attr source packetReceivedFromUpper
attr title "packets received from higher layer, count"
scalar DemoNetworkEth.r1.lo[0].lo rcvdPkFromHl:sum(packetBytes) 0
attr interpolationmode none
attr recordingmode sum(packetBytes)
attr source packetReceivedFromUpper
attr title "packets received from higher layer, sum(packetBytes)"
scalar DemoNetworkEth.r1.lo[0].lo passedUpPk:count 0
attr interpolationmode none
attr recordingmode count
attr source packetSentToUpper
attr title "packets passed to higher layer, count"
scalar DemoNetworkEth.r1.lo[0].lo passedUpPk:sum(packetBytes) 0
attr interpolationmode none
attr recordingmode sum(packetBytes)
attr source packetSentToUpper
attr title "packets passed to higher layer, sum(packetBytes)"
par DemoNetworkEth.r1.lo[0] typename "\"inet.linklayer.loopback.LoopbackInterface\""
par DemoNetworkEth.r1.lo[0] displayStringTextFormat "\"%a (%i)\\n%m\""
par DemoNetworkEth.r1.lo[0] recordPcap false
par DemoNetworkEth.r1.lo[0] numPcapRecorders 0
par DemoNetworkEth.r1.lo[0] interfaceTableModule "\"DemoNetworkEth.r1.interfaceTable\""
scalar DemoNetworkEth.r1.lo[0] packetDropInterfaceDown:count 0
attr interpolationmode none
attr recordingmode count
attr source packetDropReasonIsInterfaceDown(packetDropped)
attr title "packet drops: interface down, count"
scalar DemoNetworkEth.r1.lo[0] packetDropInterfaceDown:sum(packetBytes) 0
attr interpolationmode none
attr recordingmode sum(packetBytes)
attr source packetDropReasonIsInterfaceDown(packetDropped)
attr title "packet drops: interface down, sum(packetBytes)"
scalar DemoNetworkEth.r1.lo[0] packetDropNoCarrier:count 0
attr interpolationmode none
attr recordingmode count
attr source packetDropReasonIsNoCarrier(packetDropped)
attr title "packet drops: no carrier, count"
scalar DemoNetworkEth.r1.lo[0] packetDropNoCarrier:sum(packetBytes) 0
attr interpolationmode none
attr recordingmode sum(packetBytes)
attr source packetDropReasonIsNoCarrier(packetDropped)
attr title "packet drops: no carrier, sum(packetBytes)"
par DemoNetworkEth.r1.eth[0].mac.phys$o.channel typename "\"ned.IdealChannel\""
par DemoNetworkEth.r1.eth[0].phys$i.channel typename "\"ned.IdealChannel\""
par DemoNetworkEth.r1.eth[0].upperLayerIn.channel typename "\"ned.IdealChannel\""
par DemoNetworkEth.r1.eth[0].mac.upperLayerOut.channel typename "\"ned.IdealChannel\""
par DemoNetworkEth.r1.eth[0].queue.classifier typename "\"inet.linklayer.ethernet.common.EthernetFrameClassifier\""
par DemoNetworkEth.r1.eth[0].queue.classifier displayStringTextFormat "\"classified %p pk (%l)\""
par DemoNetworkEth.r1.eth[0].queue.classifier reverseOrder false
scalar DemoNetworkEth.r1.eth[0].queue.classifier packets:count 1
attr recordingmode count
attr source packetPushed
attr title "packets, count"
attr unit pk
scalar DemoNetworkEth.r1.eth[0].queue.classifier packetLengths:sum 656
attr interpolationmode none
attr recordingmode sum
attr source packetLength(packetPushed)
attr title "packet lengths, sum"
attr unit b
statistic DemoNetworkEth.r1.eth[0].queue.classifier packetLengths:histogram
field count 1
field mean 656
field stddev nan
field min 656
field max 656
field sum 656
field sqrsum 430336
attr interpolationmode none
attr recordingmode histogram
attr source packetLength(packetPushed)
attr title "packet lengths"
attr unit b
bin	-inf	0
bin	655	0
bin	656	1
bin	657	0
par DemoNetworkEth.r1.eth[0].queue.pauseQueue typename "\"inet.queueing.queue.DropTailQueue\""
par DemoNetworkEth.r1.eth[0].queue.pauseQueue displayStringTextFormat "\"contains %p pk (%l) pushed %u\\npulled %o removed %r dropped %d\""
par DemoNetworkEth.r1.eth[0].queue.pauseQueue packetCapacity 100
par DemoNetworkEth.r1.eth[0].queue.pauseQueue dataCapacity -1b
attr unit b
par DemoNetworkEth.r1.eth[0].queue.pauseQueue dropperClass "\"inet::queueing::PacketAtCollectionEndDropper\""
par DemoNetworkEth.r1.eth[0].queue.pauseQueue comparatorClass "\"\""
par DemoNetworkEth.r1.eth[0].queue.pauseQueue bufferModule "\"\""
scalar DemoNetworkEth.r1.eth[0].queue.pauseQueue queueLength:last 0
attr autoWarmupFilter false
attr interpolationmode sample-hold
attr recordingmode last
attr source "warmup(atomic(constant0(packetPushEnded) + count(packetPushStarted) - count(packetPulled) - count(packetRemoved) - count(packetDropped)))"
attr title "queue length, last"
attr unit pk
scalar DemoNetworkEth.r1.eth[0].queue.pauseQueue queueLength:max 0
attr autoWarmupFilter false
attr interpolationmode sample-hold
attr recordingmode max
attr source "warmup(atomic(constant0(packetPushEnded) + count(packetPushStarted) - count(packetPulled) - count(packetRemoved) - count(packetDropped)))"
attr title "queue length, max"
attr unit pk
scalar DemoNetworkEth.r1.eth[0].queue.pauseQueue queueLength:timeavg 0
attr autoWarmupFilter false
attr interpolationmode sample-hold
attr recordingmode timeavg
attr source "warmup(atomic(constant0(packetPushEnded) + count(packetPushStarted) - count(packetPulled) - count(packetRemoved) - count(packetDropped)))"
attr title "queue length, timeavg"
attr unit pk
scalar DemoNetworkEth.r1.eth[0].queue.pauseQueue queueBitLength:last 0
attr autoWarmupFilter false
attr interpolationmode sample-hold
attr recordingmode last
attr source "warmup(atomic(constant0(packetPushEnded) + sum(packetLength(packetPushStarted)) - sum(packetLength(packetPulled)) - sum(packetLength(packetRemoved)) - sum(packetLength(packetDropped))))"
attr title "queue bit length, last"
attr unit b
scalar DemoNetworkEth.r1.eth[0].queue.pauseQueue queueBitLength:max 0
attr autoWarmupFilter false
attr interpolationmode sample-hold
attr recordingmode max
attr source "warmup(atomic(constant0(packetPushEnded) + sum(packetLength(packetPushStarted)) - sum(packetLength(packetPulled)) - sum(packetLength(packetRemoved)) - sum(packetLength(packetDropped))))"
attr title "queue bit length, max"
attr unit b
scalar DemoNetworkEth.r1.eth[0].queue.pauseQueue queueBitLength:timeavg 0
attr autoWarmupFilter false
attr interpolationmode sample-hold
attr recordingmode timeavg
attr source "warmup(atomic(constant0(packetPushEnded) + sum(packetLength(packetPushStarted)) - sum(packetLength(packetPulled)) - sum(packetLength(packetRemoved)) - sum(packetLength(packetDropped))))"
attr title "queue bit length, timeavg"
attr unit b
statistic DemoNetworkEth.r1.eth[0].queue.pauseQueue queueingTime:histogram
field count 0
field mean -nan
field stddev nan
field min nan
field max nan
field sum 0
field sqrsum 0
attr interpolationmode none
attr recordingmode histogram
attr source queueingTime(packetPulled)
attr title "queueing times"
attr unit s
bin	-inf	0
bin	0	0
bin	1	0
scalar DemoNetworkEth.r1.eth[0].queue.pauseQueue outgoingPackets:count 0
attr recordingmode count
attr source packetPulled
attr title "outgoing packets, count"
attr unit pk
scalar DemoNetworkEth.r1.eth[0].queue.pauseQueue outgoingPacketLengths:sum 0
attr interpolationmode none
attr recordingmode sum
attr source packetLength(packetPulled)
attr title "outgoing packet lengths, sum"
attr unit b
statistic DemoNetworkEth.r1.eth[0].queue.pauseQueue outgoingPacketLengths:histogram
field count 0
field mean -nan
field stddev nan
field min nan
field max nan
field sum 0
field sqrsum 0
attr interpolationmode none
attr recordingmode histogram
attr source packetLength(packetPulled)
attr title "outgoing packet lengths"
attr unit b
bin	-inf	0
bin	0	0
bin	1	0
statistic DemoNetworkEth.r1.eth[0].queue.pauseQueue flowQueueingTime:histogram
field count 0
field mean -nan
field stddev nan
field min nan
field max nan
field sum 0
field sqrsum 0
attr interpolationmode none
attr recordingmode histogram
attr source queueingTime(demuxFlow(packetPulled))
attr title "flow queueing times"
attr unit s
bin	-inf	0
bin	0	0
bin	1	0
scalar DemoNetworkEth.r1.eth[0].queue.pauseQueue incomingPackets:count 0
attr recordingmode count
attr source packetPushStarted
attr title "incoming packets, count"
attr unit pk
scalar DemoNetworkEth.r1.eth[0].queue.pauseQueue incomingPacketLengths:sum 0
attr interpolationmode none
attr recordingmode sum
attr source packetLength(packetPushStarted)
attr title "incoming packet lengths, sum"
attr unit b
statistic DemoNetworkEth.r1.eth[0].queue.pauseQueue incomingPacketLengths:histogram
field count 0
field mean -nan
field stddev nan
field min nan
field max nan
field sum 0
field sqrsum 0
attr interpolationmode none
attr recordingmode histogram
attr source packetLength(packetPushStarted)
attr title "incoming packet lengths"
attr unit b
bin	-inf	0
bin	0	0
bin	1	0
scalar DemoNetworkEth.r1.eth[0].queue.pauseQueue droppedPacketsQueueOverflow:count 0
attr interpolationmode none
attr recordingmode count
attr source packetDropReasonIsQueueOverflow(packetDropped)
attr title "dropped packets: queue overflow, count"
attr unit pk
scalar DemoNetworkEth.r1.eth[0].queue.pauseQueue droppedPacketLengthsQueueOverflow:sum 0
attr interpolationmode none
attr recordingmode sum
attr source packetLength(packetDropReasonIsQueueOverflow(packetDropped))
attr title "dropped packet lengths: queue overflow, sum"
attr unit b
par DemoNetworkEth.r1.eth[0].queue.dataQueue typename "\"inet.queueing.queue.DropTailQueue\""
par DemoNetworkEth.r1.eth[0].queue.dataQueue displayStringTextFormat "\"contains %p pk (%l) pushed %u\\npulled %o removed %r dropped %d\""
par DemoNetworkEth.r1.eth[0].queue.dataQueue packetCapacity 10
par DemoNetworkEth.r1.eth[0].queue.dataQueue dataCapacity -1b
attr unit b
par DemoNetworkEth.r1.eth[0].queue.dataQueue dropperClass "\"inet::queueing::PacketAtCollectionEndDropper\""
par DemoNetworkEth.r1.eth[0].queue.dataQueue comparatorClass "\"\""
par DemoNetworkEth.r1.eth[0].queue.dataQueue bufferModule "\"\""
scalar DemoNetworkEth.r1.eth[0].queue.dataQueue queueLength:last 0
attr autoWarmupFilter false
attr interpolationmode sample-hold
attr recordingmode last
attr source "warmup(atomic(constant0(packetPushEnded) + count(packetPushStarted) - count(packetPulled) - count(packetRemoved) - count(packetDropped)))"
attr title "queue length, last"
attr unit pk
scalar DemoNetworkEth.r1.eth[0].queue.dataQueue queueLength:max 0
attr autoWarmupFilter false
attr interpolationmode sample-hold
attr recordingmode max
attr source "warmup(atomic(constant0(packetPushEnded) + count(packetPushStarted) - count(packetPulled) - count(packetRemoved) - count(packetDropped)))"
attr title "queue length, max"
attr unit pk
scalar DemoNetworkEth.r1.eth[0].queue.dataQueue queueLength:timeavg 0
attr autoWarmupFilter false
attr interpolationmode sample-hold
attr recordingmode timeavg
attr source "warmup(atomic(constant0(packetPushEnded) + count(packetPushStarted) - count(packetPulled) - count(packetRemoved) - count(packetDropped)))"
attr title "queue length, timeavg"
attr unit pk
scalar DemoNetworkEth.r1.eth[0].queue.dataQueue queueBitLength:last 0
attr autoWarmupFilter false
attr interpolationmode sample-hold
attr recordingmode last
attr source "warmup(atomic(constant0(packetPushEnded) + sum(packetLength(packetPushStarted)) - sum(packetLength(packetPulled)) - sum(packetLength(packetRemoved)) - sum(packetLength(packetDropped))))"
attr title "queue bit length, last"
attr unit b
scalar DemoNetworkEth.r1.eth[0].queue.dataQueue queueBitLength:max 0
attr autoWarmupFilter false
attr interpolationmode sample-hold
attr recordingmode max
attr source "warmup(atomic(constant0(packetPushEnded) + sum(packetLength(packetPushStarted)) - sum(packetLength(packetPulled)) - sum(packetLength(packetRemoved)) - sum(packetLength(packetDropped))))"
attr title "queue bit length, max"
attr unit b
scalar DemoNetworkEth.r1.eth[0].queue.dataQueue queueBitLength:timeavg 0
attr autoWarmupFilter false
attr interpolationmode sample-hold
attr recordingmode timeavg
attr source "warmup(atomic(constant0(packetPushEnded) + sum(packetLength(packetPushStarted)) - sum(packetLength(packetPulled)) - sum(packetLength(packetRemoved)) - sum(packetLength(packetDropped))))"
attr title "queue bit length, timeavg"
attr unit b
statistic DemoNetworkEth.r1.eth[0].queue.dataQueue queueingTime:histogram
field count 1
field mean 0
field stddev nan
field min 0
field max 0
field sum 0
field sqrsum 0
attr interpolationmode none
attr recordingmode histogram
attr source queueingTime(packetPulled)
attr title "queueing times"
attr unit s
bin	-inf	0
bin	-0.5	0
bin	-0.48	0
bin	-0.46	0
bin	-0.44	0
bin	-0.42	0
bin	-0.4	0
bin	-0.38	0
bin	-0.36	0
bin	-0.34	0
bin	-0.32	0
bin	-0.3	0
bin	-0.28	0
bin	-0.26	0
bin	-0.24	0
bin	-0.22	0
bin	-0.2	0
bin	-0.18	0
bin	-0.16	0
bin	-0.14	0
bin	-0.12	0
bin	-0.1	0
bin	-0.08	0
bin	-0.06	0
bin	-0.04	0
bin	-0.02	0
bin	0	1
bin	0.02	0
bin	0.04	0
bin	0.06	0
bin	0.08	0
bin	0.1	0
bin	0.12	0
bin	0.14	0
bin	0.16	0
bin	0.18	0
bin	0.2	0
bin	0.22	0
bin	0.24	0
bin	0.26	0
bin	0.28	0
bin	0.3	0
bin	0.32	0
bin	0.34	0
bin	0.36	0
bin	0.38	0
bin	0.4	0
bin	0.42	0
bin	0.44	0
bin	0.46	0
bin	0.48	0
bin	0.5	0
scalar DemoNetworkEth.r1.eth[0].queue.dataQueue outgoingPackets:count 1
attr recordingmode count
attr source packetPulled
attr title "outgoing packets, count"
attr unit pk
scalar DemoNetworkEth.r1.eth[0].queue.dataQueue outgoingPacketLengths:sum 656
attr interpolationmode none
attr recordingmode sum
attr source packetLength(packetPulled)
attr title "outgoing packet lengths, sum"
attr unit b
statistic DemoNetworkEth.r1.eth[0].queue.dataQueue outgoingPacketLengths:histogram
field count 1
field mean 656
field stddev nan
field min 656
field max 656
field sum 656
field sqrsum 430336
attr interpolationmode none
attr recordingmode histogram
attr source packetLength(packetPulled)
attr title "outgoing packet lengths"
attr unit b
bin	-inf	0
bin	655	0
bin	656	1
bin	657	0
statistic DemoNetworkEth.r1.eth[0].queue.dataQueue flowQueueingTime:histogram
field count 0
field mean -nan
field stddev nan
field min nan
field max nan
field sum 0
field sqrsum 0
attr interpolationmode none
attr recordingmode histogram
attr source queueingTime(demuxFlow(packetPulled))
attr title "flow queueing times"
attr unit s
bin	-inf	0
bin	0	0
bin	1	0
scalar DemoNetworkEth.r1.eth[0].queue.dataQueue incomingPackets:count 1
attr recordingmode count
attr source packetPushStarted
attr title "incoming packets, count"
attr unit pk
scalar DemoNetworkEth.r1.eth[0].queue.dataQueue incomingPacketLengths:sum 656
attr interpolationmode none
attr recordingmode sum
attr source packetLength(packetPushStarted)
attr title "incoming packet lengths, sum"
attr unit b
statistic DemoNetworkEth.r1.eth[0].queue.dataQueue incomingPacketLengths:histogram
field count 1
field mean 656
field stddev nan
field min 656
field max 656
field sum 656
field sqrsum 430336
attr interpolationmode none
attr recordingmode histogram
attr source packetLength(packetPushStarted)
attr title "incoming packet lengths"
attr unit b
bin	-inf	0
bin	655	0
bin	656	1
bin	657	0
scalar DemoNetworkEth.r1.eth[0].queue.dataQueue droppedPacketsQueueOverflow:count 0
attr interpolationmode none
attr recordingmode count
attr source packetDropReasonIsQueueOverflow(packetDropped)
attr title "dropped packets: queue overflow, count"
attr unit pk
scalar DemoNetworkEth.r1.eth[0].queue.dataQueue droppedPacketLengthsQueueOverflow:sum 0
attr interpolationmode none
attr recordingmode sum
attr source packetLength(packetDropReasonIsQueueOverflow(packetDropped))
attr title "dropped packet lengths: queue overflow, sum"
attr unit b
par DemoNetworkEth.r1.eth[0].queue.scheduler typename "\"inet.queueing.scheduler.PriorityScheduler\""
par DemoNetworkEth.r1.eth[0].queue.scheduler displayStringTextFormat "\"scheduled %p pk (%l)\""
par DemoNetworkEth.r1.eth[0].queue.scheduler reverseOrder false
scalar DemoNetworkEth.r1.eth[0].queue.scheduler packets:count 1
attr recordingmode count
attr source packetPulled
attr title "packets, count"
attr unit pk
scalar DemoNetworkEth.r1.eth[0].queue.scheduler packetLengths:sum 656
attr interpolationmode none
attr recordingmode sum
attr source packetLength(packetPulled)
attr title "packet lengths, sum"
attr unit b
statistic DemoNetworkEth.r1.eth[0].queue.scheduler packetLengths:histogram
field count 1
field mean 656
field stddev nan
field min 656
field max 656
field sum 656
field sqrsum 430336
attr interpolationmode none
attr recordingmode histogram
attr source packetLength(packetPulled)
attr title "packet lengths"
attr unit b
bin	-inf	0
bin	655	0
bin	656	1
bin	657	0
par DemoNetworkEth.r1.eth[0].queue typename "\"inet.linklayer.ethernet.common.EthernetQosQueue\""
par DemoNetworkEth.r1.eth[0].queue displayStringTextFormat "\"contains %p pk (%l) pushed %u created %c\\n pulled %o removed %r dropped %d\""
par DemoNetworkEth.r1.eth[0].queue packetCapacity 1000
par DemoNetworkEth.r1.eth[0].queue dataCapacity -1b
attr unit b
par DemoNetworkEth.r1.eth[0].queue dropperClass "\"\""
scalar DemoNetworkEth.r1.eth[0].queue queueLength:last -1
attr autoWarmupFilter false
attr interpolationmode sample-hold
attr recordingmode last
attr source "warmup(atomic(constant0(localSignal(packetPushEnded)) + count(localSignal(packetPushStarted)) - count(localSignal(packetPulled)) - count(localSignal(packetRemoved)) - count(localSignal(packetDropped))))"
attr title "queue length, last"
attr unit pk
scalar DemoNetworkEth.r1.eth[0].queue queueLength:max 0
attr autoWarmupFilter false
attr interpolationmode sample-hold
attr recordingmode max
attr source "warmup(atomic(constant0(localSignal(packetPushEnded)) + count(localSignal(packetPushStarted)) - count(localSignal(packetPulled)) - count(localSignal(packetRemoved)) - count(localSignal(packetDropped))))"
attr title "queue length, max"
attr unit pk
scalar DemoNetworkEth.r1.eth[0].queue queueLength:timeavg -0.00029550427604632
attr autoWarmupFilter false
attr interpolationmode sample-hold
attr recordingmode timeavg
attr source "warmup(atomic(constant0(localSignal(packetPushEnded)) + count(localSignal(packetPushStarted)) - count(localSignal(packetPulled)) - count(localSignal(packetRemoved)) - count(localSignal(packetDropped))))"
attr title "queue length, timeavg"
attr unit pk
scalar DemoNetworkEth.r1.eth[0].queue queueBitLength:last -656
attr autoWarmupFilter false
attr interpolationmode sample-hold
attr recordingmode last
attr source "warmup(atomic(constant0(localSignal(packetPushEnded)) + sum(packetLength(localSignal(packetPushStarted))) - sum(packetLength(localSignal(packetPulled))) - sum(packetLength(localSignal(packetRemoved))) - sum(packetLength(localSignal(packetDropped)))))"
attr title "queue bit length, last"
attr unit b
scalar DemoNetworkEth.r1.eth[0].queue queueBitLength:max 0
attr autoWarmupFilter false
attr interpolationmode sample-hold
attr recordingmode max
attr source "warmup(atomic(constant0(localSignal(packetPushEnded)) + sum(packetLength(localSignal(packetPushStarted))) - sum(packetLength(localSignal(packetPulled))) - sum(packetLength(localSignal(packetRemoved))) - sum(packetLength(localSignal(packetDropped)))))"
attr title "queue bit length, max"
attr unit b
scalar DemoNetworkEth.r1.eth[0].queue queueBitLength:timeavg -0.19385080508639
attr autoWarmupFilter false
attr interpolationmode sample-hold
attr recordingmode timeavg
attr source "warmup(atomic(constant0(localSignal(packetPushEnded)) + sum(packetLength(localSignal(packetPushStarted))) - sum(packetLength(localSignal(packetPulled))) - sum(packetLength(localSignal(packetRemoved))) - sum(packetLength(localSignal(packetDropped)))))"
attr title "queue bit length, timeavg"
attr unit b
statistic DemoNetworkEth.r1.eth[0].queue queueingTime:histogram
field count 1
field mean 0
field stddev nan
field min 0
field max 0
field sum 0
field sqrsum 0
attr interpolationmode none
attr recordingmode histogram
attr source queueingTime(localSignal(packetPulled))
attr title "queueing times"
attr unit s
bin	-inf	0
bin	-0.5	0
bin	-0.48	0
bin	-0.46	0
bin	-0.44	0
bin	-0.42	0
bin	-0.4	0
bin	-0.38	0
bin	-0.36	0
bin	-0.34	0
bin	-0.32	0
bin	-0.3	0
bin	-0.28	0
bin	-0.26	0
bin	-0.24	0
bin	-0.22	0
bin	-0.2	0
bin	-0.18	0
bin	-0.16	0
bin	-0.14	0
bin	-0.12	0
bin	-0.1	0
bin	-0.08	0
bin	-0.06	0
bin	-0.04	0
bin	-0.02	0
bin	0	1
bin	0.02	0
bin	0.04	0
bin	0.06	0
bin	0.08	0
bin	0.1	0
bin	0.12	0
bin	0.14	0
bin	0.16	0
bin	0.18	0
bin	0.2	0
bin	0.22	0
bin	0.24	0
bin	0.26	0
bin	0.28	0
bin	0.3	0
bin	0.32	0
bin	0.34	0
bin	0.36	0
bin	0.38	0
bin	0.4	0
bin	0.42	0
bin	0.44	0
bin	0.46	0
bin	0.48	0
bin	0.5	0
scalar DemoNetworkEth.r1.eth[0].queue outgoingPackets:count 1
attr recordingmode count
attr source localSignal(packetPulled)
attr title "outgoing packets, count"
attr unit pk
scalar DemoNetworkEth.r1.eth[0].queue outgoingPacketLengths:sum 656
attr interpolationmode none
attr recordingmode sum
attr source packetLength(localSignal(packetPulled))
attr title "outgoing packet lengths, sum"
attr unit b
statistic DemoNetworkEth.r1.eth[0].queue outgoingPacketLengths:histogram
field count 1
field mean 656
field stddev nan
field min 656
field max 656
field sum 656
field sqrsum 430336
attr interpolationmode none
attr recordingmode histogram
attr source packetLength(localSignal(packetPulled))
attr title "outgoing packet lengths"
attr unit b
bin	-inf	0
bin	655	0
bin	656	1
bin	657	0
statistic DemoNetworkEth.r1.eth[0].queue flowQueueingTime:histogram
field count 0
field mean -nan
field stddev nan
field min nan
field max nan
field sum 0
field sqrsum 0
attr interpolationmode none
attr recordingmode histogram
attr source queueingTime(demuxFlow(localSignal(packetPulled)))
attr title "flow queueing times"
attr unit s
bin	-inf	0
bin	0	0
bin	1	0
scalar DemoNetworkEth.r1.eth[0].queue incomingPackets:count 0
attr recordingmode count
attr source localSignal(packetPushStarted)
attr title "incoming packets, count"
attr unit pk
scalar DemoNetworkEth.r1.eth[0].queue incomingPacketLengths:sum 0
attr interpolationmode none
attr recordingmode sum
attr source packetLength(localSignal(packetPushStarted))
attr title "incoming packet lengths, sum"
attr unit b
[...]
field count 0
field mean -nan
field stddev nan
field min nan
field max nan
field sum 0
field sqrsum 0
attr interpolationmode none
attr recordingmode histogram
attr source packetLength(localSignal(packetPulled))
attr title "outgoing packet lengths"
attr unit b
bin	-inf	0
bin	0	0
bin	1	0
statistic DemoNetworkEth.srv[1].eth[0].queue flowQueueingTime:histogram
field count 0
field mean -nan
field stddev nan
field min nan
field max nan
field sum 0
field sqrsum 0
attr interpolationmode none
attr recordingmode histogram
attr source queueingTime(demuxFlow(localSignal(packetPulled)))
attr title "flow queueing times"
attr unit s
bin	-inf	0
bin	0	0
bin	1	0
scalar DemoNetworkEth.srv[1].eth[0].queue incomingPackets:count 0
attr recordingmode count
attr source localSignal(packetPushStarted)
attr title "incoming packets, count"
attr unit pk
scalar DemoNetworkEth.srv[1].eth[0].queue incomingPacketLengths:sum 0
attr interpolationmode none
attr recordingmode sum
attr source packetLength(localSignal(packetPushStarted))
attr title "incoming packet lengths, sum"
attr unit b
statistic DemoNetworkEth.srv[1].eth[0].queue incomingPacketLengths:histogram
field count 0
field mean -nan
field stddev nan
field min nan
field max nan
field sum 0
field sqrsum 0
attr interpolationmode none
attr recordingmode histogram
attr source packetLength(localSignal(packetPushStarted))
attr title "incoming packet lengths"
attr unit b
bin	-inf	0
bin	0	0
bin	1	0
scalar DemoNetworkEth.srv[1].eth[0].queue droppedPacketsQueueOverflow:count 0
attr interpolationmode none
attr recordingmode count
attr source packetDropReasonIsQueueOverflow(localSignal(packetDropped))
attr title "dropped packets: queue overflow, count"
attr unit pk
scalar DemoNetworkEth.srv[1].eth[0].queue droppedPacketLengthsQueueOverflow:sum 0
attr interpolationmode none
attr recordingmode sum
attr source packetLength(packetDropReasonIsQueueOverflow(localSignal(packetDropped)))
attr title "dropped packet lengths: queue overflow, sum"
attr unit b
par DemoNetworkEth.srv[1].eth[0].mac typename "\"inet.linklayer.ethernet.basic.EthernetMac\""
par DemoNetworkEth.srv[1].eth[0].mac interfaceTableModule "\"DemoNetworkEth.srv[1].interfaceTable\""
par DemoNetworkEth.srv[1].eth[0].mac displayStringTextFormat "\"rate: %b\\nsent: %s, rcvd: %r\\nqueue: %q, drop: %d\""
par DemoNetworkEth.srv[1].eth[0].mac sendRawBytes false
par DemoNetworkEth.srv[1].eth[0].mac promiscuous false
par DemoNetworkEth.srv[1].eth[0].mac duplexMode true
par DemoNetworkEth.srv[1].eth[0].mac mtu 1500B
attr unit B
par DemoNetworkEth.srv[1].eth[0].mac fcsMode "\"declared\""
attr enum declared,computed
par DemoNetworkEth.srv[1].eth[0].mac stopOperationExtraTime -1s
attr unit s
par DemoNetworkEth.srv[1].eth[0].mac stopOperationTimeout 2s
attr unit s
scalar DemoNetworkEth.srv[1].eth[0].mac "simulated time" 0.243722639021
scalar DemoNetworkEth.srv[1].eth[0].mac full-duplex 1
scalar DemoNetworkEth.srv[1].eth[0].mac "frames/sec sent" 0
scalar DemoNetworkEth.srv[1].eth[0].mac "frames/sec rcvd" 4.1030246677816
scalar DemoNetworkEth.srv[1].eth[0].mac "bits/sec sent" 0
scalar DemoNetworkEth.srv[1].eth[0].mac "bits/sec rcvd" 2691.5841820647
scalar DemoNetworkEth.srv[1].eth[0].mac "rx channel idle (%)" 99.970458222392
scalar DemoNetworkEth.srv[1].eth[0].mac "rx channel utilization (%)" 0.029541777608028
scalar DemoNetworkEth.srv[1].eth[0].mac rxPausePkUnits:count 0
attr interpolationmode none
attr recordingmode count
attr title "pause units received, count"
scalar DemoNetworkEth.srv[1].eth[0].mac rxPausePkUnits:sum 0
attr interpolationmode none
attr recordingmode sum
attr title "pause units received, sum"
scalar DemoNetworkEth.srv[1].eth[0].mac txPausePkUnits:count 0
attr interpolationmode none
attr recordingmode count
attr title "pause units sent, count"
scalar DemoNetworkEth.srv[1].eth[0].mac txPausePkUnits:sum 0
attr interpolationmode none
attr recordingmode sum
attr title "pause units sent, sum"
scalar DemoNetworkEth.srv[1].eth[0].mac rxPkOk:count 1
attr interpolationmode none
attr recordingmode count
attr source rxPkOk
attr title "packets received OK, count"
scalar DemoNetworkEth.srv[1].eth[0].mac rxPkOk:sum(packetBytes) 82
attr interpolationmode none
attr recordingmode sum(packetBytes)
attr source rxPkOk
attr title "packets received OK, sum(packetBytes)"
scalar DemoNetworkEth.srv[1].eth[0].mac txPk:count 0
attr interpolationmode none
attr recordingmode count
attr source packetSentToLower
attr title "packets transmitted, count"
scalar DemoNetworkEth.srv[1].eth[0].mac txPk:sum(packetBytes) 0
attr interpolationmode none
attr recordingmode sum(packetBytes)
attr source packetSentToLower
attr title "packets transmitted, sum(packetBytes)"
scalar DemoNetworkEth.srv[1].eth[0].mac packetReceivedFromUpper:count 0
attr interpolationmode none
attr recordingmode count
attr source packetReceivedFromUpper
attr title "packet bytes from higher layer, count"
scalar DemoNetworkEth.srv[1].eth[0].mac packetReceivedFromUpper:sum(packetBytes) 0
attr interpolationmode none
attr recordingmode sum(packetBytes)
attr source packetReceivedFromUpper
attr title "packet bytes from higher layer, sum(packetBytes)"
scalar DemoNetworkEth.srv[1].eth[0].mac passedUpPk:count 1
attr interpolationmode none
attr recordingmode count
attr source packetSentToUpper
attr title "packets passed to higher layer, count"
scalar DemoNetworkEth.srv[1].eth[0].mac passedUpPk:sum(packetBytes) 82
attr interpolationmode none
attr recordingmode sum(packetBytes)
attr source packetSentToUpper
attr title "packets passed to higher layer, sum(packetBytes)"
scalar DemoNetworkEth.srv[1].eth[0].mac packetDropIncorrectlyReceived:count 0
attr interpolationmode none
attr recordingmode count
attr source packetDropReasonIsIncorrectlyReceived(packetDropped)
attr title "packet drop: incorrectly received, count"
scalar DemoNetworkEth.srv[1].eth[0].mac packetDropIncorrectlyReceived:sum(packetBytes) 0
attr interpolationmode none
attr recordingmode sum(packetBytes)
attr source packetDropReasonIsIncorrectlyReceived(packetDropped)
attr title "packet drop: incorrectly received, sum(packetBytes)"
scalar DemoNetworkEth.srv[1].eth[0].mac packetDropInterfaceDown:count 0
attr interpolationmode none
attr recordingmode count
attr source packetDropReasonIsInterfaceDown(packetDropped)
attr title "packet drop: interface down, count"
scalar DemoNetworkEth.srv[1].eth[0].mac packetDropInterfaceDown:sum(packetBytes) 0
attr interpolationmode none
attr recordingmode sum(packetBytes)
attr source packetDropReasonIsInterfaceDown(packetDropped)
attr title "packet drop: interface down, sum(packetBytes)"
scalar DemoNetworkEth.srv[1].eth[0].mac packetDropNotAddressedToUs:count 0
attr interpolationmode none
attr recordingmode count
attr source packetDropReasonIsNotAddressedToUs(packetDropped)
attr title "packet drop: not addressed to us, count"
scalar DemoNetworkEth.srv[1].eth[0].mac packetDropNotAddressedToUs:sum(packetBytes) 0
attr interpolationmode none
attr recordingmode sum(packetBytes)
attr source packetDropReasonIsNotAddressedToUs(packetDropped)
attr title "packet drop: not addressed to us, sum(packetBytes)"
par DemoNetworkEth.srv[1].eth[0] typename "\"inet.linklayer.ethernet.EthernetInterface\""
par DemoNetworkEth.srv[1].eth[0] displayStringTextFormat "\"%a (%i)\\n%m\""
par DemoNetworkEth.srv[1].eth[0] recordPcap false
par DemoNetworkEth.srv[1].eth[0] numPcapRecorders 0
par DemoNetworkEth.srv[1].eth[0] interfaceTableModule "\"DemoNetworkEth.srv[1].interfaceTable\""
par DemoNetworkEth.srv[1].eth[0] protocol "\"ethernetmac\""
par DemoNetworkEth.srv[1].eth[0] address "\"0A-AA-00-00-00-0A\""
attr mutable ""
par DemoNetworkEth.srv[1].eth[0] duplexMode true
par DemoNetworkEth.srv[1].eth[0] csmacdSupport false
par DemoNetworkEth.srv[1].eth[0] bitrate 0bps
attr unit bps
par DemoNetworkEth.srv[1].eth[0] fcsMode "\"declared\""
attr enum declared,computed
scalar DemoNetworkEth.srv[1].eth[0] packetDropInterfaceDown:count 0
attr interpolationmode none
attr recordingmode count
attr source packetDropReasonIsInterfaceDown(packetDropped)
attr title "packet drops: interface down, count"
scalar DemoNetworkEth.srv[1].eth[0] packetDropInterfaceDown:sum(packetBytes) 0
attr interpolationmode none
attr recordingmode sum(packetBytes)
attr source packetDropReasonIsInterfaceDown(packetDropped)
attr title "packet drops: interface down, sum(packetBytes)"
scalar DemoNetworkEth.srv[1].eth[0] packetDropNoCarrier:count 0
attr interpolationmode none
attr recordingmode count
attr source packetDropReasonIsNoCarrier(packetDropped)
attr title "packet drops: no carrier, count"
scalar DemoNetworkEth.srv[1].eth[0] packetDropNoCarrier:sum(packetBytes) 0
attr interpolationmode none
attr recordingmode sum(packetBytes)
attr source packetDropReasonIsNoCarrier(packetDropped)
attr title "packet drops: no carrier, sum(packetBytes)"
par DemoNetworkEth.srv[1].ipv6.transportIn.channel typename "\"ned.IdealChannel\""
par DemoNetworkEth.srv[1].ipv6.up.out[0].channel typename "\"ned.IdealChannel\""
par DemoNetworkEth.srv[1].ipv6.ipv6.queueOut.channel typename "\"ned.IdealChannel\""
par DemoNetworkEth.srv[1].ipv6.ifIn.channel typename "\"ned.IdealChannel\""
par DemoNetworkEth.srv[1].ipv6.routingTable typename "\"inet.networklayer.ipv6.Ipv6RoutingTable\""
par DemoNetworkEth.srv[1].ipv6.routingTable interfaceTableModule "\"DemoNetworkEth.srv[1].interfaceTable\""
par DemoNetworkEth.srv[1].ipv6.routingTable ipv6TunnelingModule "\"DemoNetworkEth.srv[1].ipv6.iptunneling\""
par DemoNetworkEth.srv[1].ipv6.routingTable routes "<routingTable/> at content:1"
par DemoNetworkEth.srv[1].ipv6.routingTable forwarding false
par DemoNetworkEth.srv[1].ipv6.routingTable isRouter false
par DemoNetworkEth.srv[1].ipv6.routingTable multicastForwarding false
par DemoNetworkEth.srv[1].ipv6.routingTable useAdminDist false
par DemoNetworkEth.srv[1].ipv6.up typename "\"inet.common.MessageDispatcher\""
par DemoNetworkEth.srv[1].ipv6.up displayStringTextFormat "\"processed %p pk (%l)\""
par DemoNetworkEth.srv[1].ipv6.up forwardServiceRegistration true
par DemoNetworkEth.srv[1].ipv6.up forwardProtocolRegistration true
par DemoNetworkEth.srv[1].ipv6.icmpv6 typename "\"inet.networklayer.icmpv6.Icmpv6\""
par DemoNetworkEth.srv[1].ipv6.icmpv6 interfaceTableModule "\"DemoNetworkEth.srv[1].interfaceTable\""
par DemoNetworkEth.srv[1].ipv6.icmpv6 crcMode "\"declared\""
attr enum declared,computed
par DemoNetworkEth.srv[1].ipv6.lp typename "\"inet.common.MessageDispatcher\""
par DemoNetworkEth.srv[1].ipv6.lp displayStringTextFormat "\"processed %p pk (%l)\""
par DemoNetworkEth.srv[1].ipv6.lp forwardServiceRegistration true
par DemoNetworkEth.srv[1].ipv6.lp forwardProtocolRegistration true
par DemoNetworkEth.srv[1].ipv6.neighbourDiscovery typename "\"inet.networklayer.icmpv6.Ipv6NeighbourDiscovery\""
par DemoNetworkEth.srv[1].ipv6.neighbourDiscovery interfaceTableModule "\"DemoNetworkEth.srv[1].interfaceTable\""
par DemoNetworkEth.srv[1].ipv6.neighbourDiscovery crcMode "\"declared\""
attr enum declared,computed
par DemoNetworkEth.srv[1].ipv6.neighbourDiscovery icmpv6Module "\"DemoNetworkEth.srv[1].ipv6.icmpv6\""
par DemoNetworkEth.srv[1].ipv6.neighbourDiscovery xmipv6Module "\"\""
par DemoNetworkEth.srv[1].ipv6.neighbourDiscovery routingTableModule "\"DemoNetworkEth.srv[1].ipv6.routingTable\""
par DemoNetworkEth.srv[1].ipv6.neighbourDiscovery minIntervalBetweenRAs 0.03s
attr unit s
par DemoNetworkEth.srv[1].ipv6.neighbourDiscovery maxIntervalBetweenRAs 0.07s
attr unit s
scalar DemoNetworkEth.srv[1].ipv6.neighbourDiscovery startDad:count 0
attr recordingmode count
attr title "DAD started, count"
par DemoNetworkEth.srv[1].ipv6.ipv6 typename "\"inet.networklayer.ipv6.Ipv6\""
par DemoNetworkEth.srv[1].ipv6.ipv6 interfaceTableModule "\"DemoNetworkEth.srv[1].interfaceTable\""
par DemoNetworkEth.srv[1].ipv6.ipv6 routingTableModule "\"DemoNetworkEth.srv[1].ipv6.routingTable\""
par DemoNetworkEth.srv[1].ipv6.ipv6 ipv6NeighbourDiscoveryModule "\"DemoNetworkEth.srv[1].ipv6.neighbourDiscovery\""
par DemoNetworkEth.srv[1].ipv6.ipv6 icmpv6Module "\"DemoNetworkEth.srv[1].ipv6.icmpv6\""
par DemoNetworkEth.srv[1].ipv6.ipv6 ipv6TunnelingModule "\"DemoNetworkEth.srv[1].ipv6.iptunneling\""
par DemoNetworkEth.srv[1].ipv6.ipv6 procDelay 0s
attr unit s
par DemoNetworkEth.srv[1].ipv6.iptunneling typename "\"inet.networklayer.ipv6tunneling.Ipv6Tunneling\""
par DemoNetworkEth.srv[1].ipv6.iptunneling interfaceTableModule "\"DemoNetworkEth.srv[1].interfaceTable\""
par DemoNetworkEth.srv[1].ipv6.iptunneling routingTableModule "\"DemoNetworkEth.srv[1].ipv6.routingTable\""
par DemoNetworkEth.srv[1].ipv6.iptunneling xmipv6Module "\"\""
par DemoNetworkEth.srv[1].ipv6 typename "\"inet.networklayer.ipv6.Ipv6NetworkLayer\""
par DemoNetworkEth.srv[1].ipv6 xMIPv6Support false
par DemoNetworkEth.srv[1].ipv6 forwarding false
par DemoNetworkEth.srv[1].ipv6 multicastForwarding false
par DemoNetworkEth.srv[1].ipv6 interfaceTableModule "\"DemoNetworkEth.srv[1].interfaceTable\""
par DemoNetworkEth.srv[1].nl typename "\"inet.common.MessageDispatcher\""
par DemoNetworkEth.srv[1].nl displayStringTextFormat "\"processed %p pk (%l)\""
par DemoNetworkEth.srv[1].nl forwardServiceRegistration true
par DemoNetworkEth.srv[1].nl forwardProtocolRegistration true
par DemoNetworkEth.srv[1].udp typename "\"inet.transportlayer.udp.Udp\""
par DemoNetworkEth.srv[1].udp interfaceTableModule "\"DemoNetworkEth.srv[1].interfaceTable\""
par DemoNetworkEth.srv[1].udp icmpModule "\"^.ipv4.icmp\""
par DemoNetworkEth.srv[1].udp icmpv6Module "\"^.ipv6.icmpv6\""
par DemoNetworkEth.srv[1].udp crcMode "\"declared\""
attr enum disabled,declared,computed
par DemoNetworkEth.srv[1].udp defaultMulticastLoop true
scalar DemoNetworkEth.srv[1].udp packetReceived:count 0
attr interpolationmode none
attr recordingmode count
attr source packetReceived
attr title "packets received, count"
scalar DemoNetworkEth.srv[1].udp packetReceived:sum(packetBytes) 0
attr interpolationmode none
attr recordingmode sum(packetBytes)
attr source packetReceived
attr title "packets received, sum(packetBytes)"
scalar DemoNetworkEth.srv[1].udp packetSent:count 0
attr interpolationmode none
attr recordingmode count
attr source packetSent
attr title "packets sent, count"
scalar DemoNetworkEth.srv[1].udp packetSent:sum(packetBytes) 0
attr interpolationmode none
attr recordingmode sum(packetBytes)
attr source packetSent
attr title "packets sent, sum(packetBytes)"
scalar DemoNetworkEth.srv[1].udp passedUpPk:count 0
attr interpolationmode none
attr recordingmode count
attr source packetSentToUpper
attr title "packets passed up, count"
scalar DemoNetworkEth.srv[1].udp droppedPkWrongPort:count 0
attr interpolationmode none
attr recordingmode count
attr source packetDropReasonIsNoPortFound(packetDropped)
attr title "packets dropped (wrong port), count"
scalar DemoNetworkEth.srv[1].udp droppedPkBadChecksum:count 0
attr interpolationmode none
attr recordingmode count
attr source packetDropReasonIsIncorrectlyReceived(packetDropped)
attr title "packets dropped (checksum error), count"
par DemoNetworkEth.srv[1].tcp.conn-3 typename "\"inet.transportlayer.tcp.TcpConnection\""
par DemoNetworkEth.srv[1].tcp typename "\"inet.transportlayer.tcp.Tcp\""
par DemoNetworkEth.srv[1].tcp crcMode "\"declared\""
attr enum declared,computed
par DemoNetworkEth.srv[1].tcp advertisedWindow 7504
par DemoNetworkEth.srv[1].tcp delayedAcksEnabled false
par DemoNetworkEth.srv[1].tcp nagleEnabled true
par DemoNetworkEth.srv[1].tcp limitedTransmitEnabled false
par DemoNetworkEth.srv[1].tcp increasedIWEnabled false
par DemoNetworkEth.srv[1].tcp sackSupport false
par DemoNetworkEth.srv[1].tcp windowScalingSupport false
par DemoNetworkEth.srv[1].tcp windowScalingFactor -1
par DemoNetworkEth.srv[1].tcp timestampSupport false
par DemoNetworkEth.srv[1].tcp mss 536
par DemoNetworkEth.srv[1].tcp msl 120s
attr unit s
par DemoNetworkEth.srv[1].tcp tcpAlgorithmClass "\"TcpReno\""
par DemoNetworkEth.srv[1].tcp useDataNotification false
par DemoNetworkEth.srv[1].tcp dupthresh 3
par DemoNetworkEth.srv[1].tcp initialSsthresh 4294967295
par DemoNetworkEth.srv[1].tcp stopOperationExtraTime 0s
attr unit s
par DemoNetworkEth.srv[1].tcp stopOperationTimeout 2s
attr unit s
par DemoNetworkEth.srv[1].tcp ecnWillingness false
par DemoNetworkEth.srv[1].tcp dctcpGamma 0.0625
par DemoNetworkEth.srv[1].tn typename "\"inet.common.MessageDispatcher\""
par DemoNetworkEth.srv[1].tn displayStringTextFormat "\"processed %p pk (%l)\""
par DemoNetworkEth.srv[1].tn forwardServiceRegistration true
par DemoNetworkEth.srv[1].tn forwardProtocolRegistration true
par DemoNetworkEth.srv[1].app[0] typename "\"inet.applications.tcpapp.TcpGenericServerApp\""
par DemoNetworkEth.srv[1].app[0] localAddress "\"\""
par DemoNetworkEth.srv[1].app[0] localPort 1000
par DemoNetworkEth.srv[1].app[0] replyDelay 0s
attr unit s
par DemoNetworkEth.srv[1].app[0] stopOperationExtraTime -1s
attr unit s
par DemoNetworkEth.srv[1].app[0] stopOperationTimeout 2s
attr unit s
scalar DemoNetworkEth.srv[1].app[0] packetReceived:count 0
attr interpolationmode none
attr recordingmode count
attr source packetReceived
attr title "packets received, count"
scalar DemoNetworkEth.srv[1].app[0] packetReceived:sum(packetBytes) 0
attr interpolationmode none
attr recordingmode sum(packetBytes)
attr source packetReceived
attr title "packets received, sum(packetBytes)"
statistic DemoNetworkEth.srv[1].app[0] endToEndDelay:histogram
field count 0
field mean -nan
field stddev nan
field min nan
field max nan
field sum 0
field sqrsum 0
attr interpolationmode none
attr recordingmode histogram
attr source dataAge(packetReceived)
attr title "end-to-end delay"
attr unit s
bin	-inf	0
bin	0	0
bin	1	0
statistic DemoNetworkEth.srv[1].app[0] endToEndDelay:weightedHistogram
field count 0
field mean -nan
field stddev nan
field min nan
field max nan
field weights 0
field weightedSum 0
field sqrSumWeights 0
field weightedSqrSum 0
attr interpolationmode none
attr recordingmode weightedHistogram
attr source dataAge(packetReceived)
attr title "end-to-end delay, weightedHistogram"
attr unit s
bin	-inf	0
bin	0	0
bin	1	0
scalar DemoNetworkEth.srv[1].app[0] packetSent:count 0
attr interpolationmode none
attr recordingmode count
attr source packetSent
attr title "packets sent, count"
scalar DemoNetworkEth.srv[1].app[0] packetSent:sum(packetBytes) 0
attr interpolationmode none
attr recordingmode sum(packetBytes)
attr source packetSent
attr title "packets sent, sum(packetBytes)"
par DemoNetworkEth.srv[1].at typename "\"inet.common.MessageDispatcher\""
par DemoNetworkEth.srv[1].at displayStringTextFormat "\"processed %p pk (%l)\""
par DemoNetworkEth.srv[1].at forwardServiceRegistration true
par DemoNetworkEth.srv[1].at forwardProtocolRegistration true
par DemoNetworkEth.srv[1] typename "\"inet.node.ipv6.StandardHost6\""
par DemoNetworkEth.srv[1] hasStatus false
par DemoNetworkEth.srv[1] osgModel "\"\""
par DemoNetworkEth.srv[1] osgModelColor "\"\""
par DemoNetworkEth.srv[1] canvasImage "\"\""
par DemoNetworkEth.srv[1] canvasImageColor "\"\""
par DemoNetworkEth.srv[1] recordPcap false
par DemoNetworkEth.srv[1] numPcapRecorders 0
par DemoNetworkEth.srv[1] numLoInterfaces 1
par DemoNetworkEth.srv[1] numWlanInterfaces 0
par DemoNetworkEth.srv[1] numEthInterfaces 0
par DemoNetworkEth.srv[1] numPppInterfaces 0
par DemoNetworkEth.srv[1] numTunInterfaces 0
par DemoNetworkEth.srv[1] numVirtInterfaces 0
par DemoNetworkEth.srv[1] fcsMode "\"declared\""
attr enum declared,computed
par DemoNetworkEth.srv[1] hasIpv4 false
par DemoNetworkEth.srv[1] hasIpv6 true
par DemoNetworkEth.srv[1] hasGn false
par DemoNetworkEth.srv[1] forwarding false
par DemoNetworkEth.srv[1] multicastForwarding false
par DemoNetworkEth.srv[1] hasUdp true
par DemoNetworkEth.srv[1] hasTcp true
par DemoNetworkEth.srv[1] hasSctp false
par DemoNetworkEth.srv[1] numApps 1
par DemoNetworkEth.srv[1] routes "<routingTable/> at content:1"
par DemoNetworkEth typename "\"inet.examples.ipv6.demonetworketh.DemoNetworkEth\""
par DemoNetworkEth n 2

