file 233035 1763752252                                          
version 3
run CBR-DL-0-20251121-20:10:51-178245
attr configname CBR-DL
attr datetime 20251121-20:10:51
attr datetimef 20251121-201051
attr experiment CBR-DL
attr inifile omnetpp.ini
attr iterationvars "$msgLen=1000B, $sndInt=0.01s, $probCqi=false, $rbs=100, $u=2, $numBgUEs=15, $dist=50m, $numBgCells=3"
attr iterationvarsd msgLen=1000B/sndInt=0.01s/probCqi=false/rbs=100/u=2/numBgUEs=15/dist=50m/numBgCells=3
attr iterationvarsf msgLen=1000B,sndInt=0.01s,probCqi=false,rbs=100,u=2,numBgUEs=15,dist=50m,numBgCells=3-
attr measurement "$msgLen=1000B, $sndInt=0.01s, $probCqi=false, $rbs=100, $u=2, $numBgUEs=15, $dist=50m, $numBgCells=3"
attr network simu5g.simulations.nr.networks.SingleCell_Standalone
attr processid 178245
attr repetition 0
attr replication #0
attr resultdir results
attr runnumber 0
attr seedset 0
itervar dist 50m
itervar msgLen 1000B
itervar numBgCells 3
itervar numBgUEs 15
itervar probCqi false
itervar rbs 100
itervar sndInt 0.01s
itervar u 2
config image-path ../../../images:../../../../inet/images
config extends Standalone-withBackground
config description "CBR Downlink (standalone, with background traffic)"
config *.ue[*].numApps 1
config *.server.numApps 1
config *.ue[*].app[*].typename CbrReceiver
config *.ue[*].app[0].localPort 3000
config *.server.app[*].typename CbrSender
config *.server.app[*].packetSize 1000B
config *.server.app[*].samplingTime 0.01s
config *.server.app[*].destAddress "\"ue[0]\""
config *.server.app[*].startTime uniform(0s,0.05s)
config *.server.app[*].finishTime 19s
config *.gnb.cellularNic.bgTrafficGenerator[0].enablePeriodicCqiUpdate true
config *.gnb.cellularNic.bgTrafficGenerator[0].useProbabilisticCqi false
config *.gnb.cellularNic.bgTrafficGenerator[0].bgUE[*].generator.typename TrafficGeneratorCbr
config *.gnb.cellularNic.bgTrafficGenerator[0].bgUE[*].generator.startTimeDl uniform(0s,0.05s)
config *.gnb.cellularNic.bgTrafficGenerator[0].bgUE[*].generator.packetSizeDl 1000B
config *.gnb.cellularNic.bgTrafficGenerator[0].bgUE[*].generator.periodDl 0.01s
config *.bgCell[*].bgTrafficGenerator.enablePeriodicCqiUpdate true
config *.bgCell[*].bgTrafficGenerator.useProbabilisticCqi false
config *.bgCell[*].bgTrafficGenerator.bgUE[*].generator.typename TrafficGeneratorCbr
config *.bgCell[*].bgTrafficGenerator.bgUE[*].generator.startTimeDl uniform(0s,0.05s)
config *.bgCell[*].bgTrafficGenerator.bgUE[*].generator.packetSizeDl 1000B
config *.bgCell[*].bgTrafficGenerator.bgUE[*].generator.periodDl 0.01s
config network simu5g.simulations.nr.networks.SingleCell_Standalone
config description "do not run this configuration! It is used as base configuration only"
config sim-time-limit 3s
config *.carrierAggregation.numComponentCarriers 1
config *.carrierAggregation.componentCarrier[0].numBands 100
config *.carrierAggregation.componentCarrier[0].numerologyIndex 2
config *.gnb.mobility.initialX 1000m
config *.gnb.mobility.initialY 1000m
config *.gnb.cellularNic.bgTrafficGenerator[0].numBgUes 15
config *.numUe 1
config *.ue[0].macCellId 0
config *.ue[0].masterId 0
config *.ue[0].nrMacCellId 1
config *.ue[0].nrMasterId 1
config *.ue[0].mobility.initialX 1000m
config *.ue[0].mobility.initialY "1000m + 50m"
config *.numBgCells 3
config *.bgCell[*].bgTrafficGenerator.numBgUes 15
config *.bgCell[0].mobility.initialX 750m
config *.bgCell[0].mobility.initialY 567m
config *.bgCell[1].mobility.initialX 1500m
config *.bgCell[1].mobility.initialY 1000m
config *.bgCell[2].mobility.initialX 750m
config *.bgCell[2].mobility.initialY 1433m
config *.bgCell[3].mobility.initialX 1250m
config *.bgCell[3].mobility.initialY 567m
config *.bgCell[4].mobility.initialX 1250m
config *.bgCell[4].mobility.initialY 1433m
config *.bgCell[5].mobility.initialX 500m
config *.bgCell[5].mobility.initialY 1000m
config *.bgCell[6].mobility.initialX 500m
config *.bgCell[6].mobility.initialY 134m
config *.bgCell[7].mobility.initialX 2000m
config *.bgCell[7].mobility.initialY 1000m
config *.bgCell[8].mobility.initialX 500m
config *.bgCell[8].mobility.initialY 1866m
config *.bgCell[*].bgScheduler.isNr true
config *.bgCell[*].bgScheduler.numBands 100
config *.bgCell[*].bgScheduler.numerologyIndex 2
config *.gnb.cellularNic.bgTrafficGenerator[0].bgUE[*].mobility.initialX uniform(750m,1250m)
config *.gnb.cellularNic.bgTrafficGenerator[0].bgUE[*].mobility.initialY uniform(750m,1250m)
config *.bgCell[0].bgTrafficGenerator.bgUE[*].mobility.initialX uniform(500m,1000m)
config *.bgCell[0].bgTrafficGenerator.bgUE[*].mobility.initialY uniform(317m,817m)
config *.bgCell[1].bgTrafficGenerator.bgUE[*].mobility.initialX uniform(1250m,1750m)
config *.bgCell[1].bgTrafficGenerator.bgUE[*].mobility.initialY uniform(750m,1250m)
config *.bgCell[2].bgTrafficGenerator.bgUE[*].mobility.initialX uniform(500m,1000m)
config *.bgCell[2].bgTrafficGenerator.bgUE[*].mobility.initialY uniform(1183m,1933m)
config *.bgCell[3].bgTrafficGenerator.bgUE[*].mobility.initialX uniform(1000m,1500m)
config *.bgCell[3].bgTrafficGenerator.bgUE[*].mobility.initialY uniform(317m,817m)
config *.bgCell[4].bgTrafficGenerator.bgUE[*].mobility.initialX uniform(1000m,1500m)
config *.bgCell[4].bgTrafficGenerator.bgUE[*].mobility.initialY uniform(1183m,1933m)
config *.bgCell[5].bgTrafficGenerator.bgUE[*].mobility.initialX uniform(250m,750m)
config *.bgCell[5].bgTrafficGenerator.bgUE[*].mobility.initialY uniform(750m,1250m)
config *.bgCell[6].bgTrafficGenerator.bgUE[*].mobility.initialX uniform(250m,750m)
config *.bgCell[6].bgTrafficGenerator.bgUE[*].mobility.initialY uniform(-116m,384m)
config *.bgCell[7].bgTrafficGenerator.bgUE[*].mobility.initialX uniform(1750m,2250m)
config *.bgCell[7].bgTrafficGenerator.bgUE[*].mobility.initialY uniform(750m,1250m)
config *.bgCell[8].bgTrafficGenerator.bgUE[*].mobility.initialX uniform(250m,750m)
config *.bgCell[8].bgTrafficGenerator.bgUE[*].mobility.initialY uniform(1183m,1683m)
config *.gnb.cellularNic.bgTrafficGenerator[0].bgUE[0].generator.rtxRateDl 0
config *.gnb.cellularNic.bgTrafficGenerator[0].bgUE[0].generator.rtxRateUl 0.47027
config *.gnb.cellularNic.bgTrafficGenerator[0].bgUE[0].generator.cqiMeanDl 14
config *.gnb.cellularNic.bgTrafficGenerator[0].bgUE[0].generator.cqiStddevDl 0
config *.gnb.cellularNic.bgTrafficGenerator[0].bgUE[0].generator.cqiMeanUl 14.0324
config *.gnb.cellularNic.bgTrafficGenerator[0].bgUE[0].generator.cqiStddevUl 0.00238448
config *.gnb.cellularNic.bgTrafficGenerator[0].bgUE[1].generator.rtxRateDl 0
config *.gnb.cellularNic.bgTrafficGenerator[0].bgUE[1].generator.rtxRateUl 0
config *.gnb.cellularNic.bgTrafficGenerator[0].bgUE[1].generator.cqiMeanDl 14
config *.gnb.cellularNic.bgTrafficGenerator[0].bgUE[1].generator.cqiStddevDl 0
config *.gnb.cellularNic.bgTrafficGenerator[0].bgUE[1].generator.cqiMeanUl 13
config *.gnb.cellularNic.bgTrafficGenerator[0].bgUE[1].generator.cqiStddevUl 0
config *.gnb.cellularNic.bgTrafficGenerator[0].bgUE[2].generator.rtxRateDl 0
config *.gnb.cellularNic.bgTrafficGenerator[0].bgUE[2].generator.rtxRateUl 0.422535
config *.gnb.cellularNic.bgTrafficGenerator[0].bgUE[2].generator.cqiMeanDl 14
config *.gnb.cellularNic.bgTrafficGenerator[0].bgUE[2].generator.cqiStddevDl 0
config *.gnb.cellularNic.bgTrafficGenerator[0].bgUE[2].generator.cqiMeanUl 14
config *.gnb.cellularNic.bgTrafficGenerator[0].bgUE[2].generator.cqiStddevUl 0
config *.gnb.cellularNic.bgTrafficGenerator[0].bgUE[3].generator.rtxRateDl 0
config *.gnb.cellularNic.bgTrafficGenerator[0].bgUE[3].generator.rtxRateUl 0.401361
config *.gnb.cellularNic.bgTrafficGenerator[0].bgUE[3].generator.cqiMeanDl 14
config *.gnb.cellularNic.bgTrafficGenerator[0].bgUE[3].generator.cqiStddevDl 0
config *.gnb.cellularNic.bgTrafficGenerator[0].bgUE[3].generator.cqiMeanUl 14
config *.gnb.cellularNic.bgTrafficGenerator[0].bgUE[3].generator.cqiStddevUl 0
config *.gnb.cellularNic.bgTrafficGenerator[0].bgUE[4].generator.rtxRateDl 0
config *.gnb.cellularNic.bgTrafficGenerator[0].bgUE[4].generator.rtxRateUl 0.310345
config *.gnb.cellularNic.bgTrafficGenerator[0].bgUE[4].generator.cqiMeanDl 14
config *.gnb.cellularNic.bgTrafficGenerator[0].bgUE[4].generator.cqiStddevDl 0
config *.gnb.cellularNic.bgTrafficGenerator[0].bgUE[4].generator.cqiMeanUl 14
config *.gnb.cellularNic.bgTrafficGenerator[0].bgUE[4].generator.cqiStddevUl 0
config *.gnb.cellularNic.bgTrafficGenerator[0].bgUE[5].generator.rtxRateDl 0
config *.gnb.cellularNic.bgTrafficGenerator[0].bgUE[5].generator.rtxRateUl 0
config *.gnb.cellularNic.bgTrafficGenerator[0].bgUE[5].generator.cqiMeanDl 15
config *.gnb.cellularNic.bgTrafficGenerator[0].bgUE[5].generator.cqiStddevDl 0
config *.gnb.cellularNic.bgTrafficGenerator[0].bgUE[5].generator.cqiMeanUl 15
config *.gnb.cellularNic.bgTrafficGenerator[0].bgUE[5].generator.cqiStddevUl 0
config *.gnb.cellularNic.bgTrafficGenerator[0].bgUE[6].generator.rtxRateDl 0
config *.gnb.cellularNic.bgTrafficGenerator[0].bgUE[6].generator.rtxRateUl 0.299145
config *.gnb.cellularNic.bgTrafficGenerator[0].bgUE[6].generator.cqiMeanDl 14
config *.gnb.cellularNic.bgTrafficGenerator[0].bgUE[6].generator.cqiStddevDl 0
config *.gnb.cellularNic.bgTrafficGenerator[0].bgUE[6].generator.cqiMeanUl 14
config *.gnb.cellularNic.bgTrafficGenerator[0].bgUE[6].generator.cqiStddevUl 0
config *.gnb.cellularNic.bgTrafficGenerator[0].bgUE[7].generator.rtxRateDl 0
config *.gnb.cellularNic.bgTrafficGenerator[0].bgUE[7].generator.rtxRateUl 0
config *.gnb.cellularNic.bgTrafficGenerator[0].bgUE[7].generator.cqiMeanDl 14
config *.gnb.cellularNic.bgTrafficGenerator[0].bgUE[7].generator.cqiStddevDl 0
config *.gnb.cellularNic.bgTrafficGenerator[0].bgUE[7].generator.cqiMeanUl 14.0465
config *.gnb.cellularNic.bgTrafficGenerator[0].bgUE[7].generator.cqiStddevUl 0.00501548
config *.gnb.cellularNic.bgTrafficGenerator[0].bgUE[8].generator.rtxRateDl 0
config *.gnb.cellularNic.bgTrafficGenerator[0].bgUE[8].generator.rtxRateUl 0
config *.gnb.cellularNic.bgTrafficGenerator[0].bgUE[8].generator.cqiMeanDl 14
config *.gnb.cellularNic.bgTrafficGenerator[0].bgUE[8].generator.cqiStddevDl 0
config *.gnb.cellularNic.bgTrafficGenerator[0].bgUE[8].generator.cqiMeanUl 14
config *.gnb.cellularNic.bgTrafficGenerator[0].bgUE[8].generator.cqiStddevUl 0
config *.gnb.cellularNic.bgTrafficGenerator[0].bgUE[9].generator.rtxRateDl 0
config *.gnb.cellularNic.bgTrafficGenerator[0].bgUE[9].generator.rtxRateUl 0.228346
config *.gnb.cellularNic.bgTrafficGenerator[0].bgUE[9].generator.cqiMeanDl 14.04
config *.gnb.cellularNic.bgTrafficGenerator[0].bgUE[9].generator.cqiStddevDl 0.00565685
config *.gnb.cellularNic.bgTrafficGenerator[0].bgUE[9].generator.cqiMeanUl 14.0315
config *.gnb.cellularNic.bgTrafficGenerator[0].bgUE[9].generator.cqiStddevUl 0.00279482
config *.gnb.cellularNic.bgTrafficGenerator[0].bgUE[10].generator.rtxRateDl 0.5
config *.gnb.cellularNic.bgTrafficGenerator[0].bgUE[10].generator.rtxRateUl 0
config *.gnb.cellularNic.bgTrafficGenerator[0].bgUE[10].generator.cqiMeanDl 14
config *.gnb.cellularNic.bgTrafficGenerator[0].bgUE[10].generator.cqiStddevDl 0
config *.gnb.cellularNic.bgTrafficGenerator[0].bgUE[10].generator.cqiMeanUl 14
config *.gnb.cellularNic.bgTrafficGenerator[0].bgUE[10].generator.cqiStddevUl 0
config *.gnb.cellularNic.bgTrafficGenerator[0].bgUE[11].generator.rtxRateDl 0
config *.gnb.cellularNic.bgTrafficGenerator[0].bgUE[11].generator.rtxRateUl 0
config *.gnb.cellularNic.bgTrafficGenerator[0].bgUE[11].generator.cqiMeanDl 15
config *.gnb.cellularNic.bgTrafficGenerator[0].bgUE[11].generator.cqiStddevDl 0
config *.gnb.cellularNic.bgTrafficGenerator[0].bgUE[11].generator.cqiMeanUl 15
config *.gnb.cellularNic.bgTrafficGenerator[0].bgUE[11].generator.cqiStddevUl 0
config *.gnb.cellularNic.bgTrafficGenerator[0].bgUE[12].generator.rtxRateDl 0.565657
config *.gnb.cellularNic.bgTrafficGenerator[0].bgUE[12].generator.rtxRateUl 0.538462
config *.gnb.cellularNic.bgTrafficGenerator[0].bgUE[12].generator.cqiMeanDl 14
config *.gnb.cellularNic.bgTrafficGenerator[0].bgUE[12].generator.cqiStddevDl 0
config *.gnb.cellularNic.bgTrafficGenerator[0].bgUE[12].generator.cqiMeanUl 14
config *.gnb.cellularNic.bgTrafficGenerator[0].bgUE[12].generator.cqiStddevUl 0
config *.gnb.cellularNic.bgTrafficGenerator[0].bgUE[13].generator.rtxRateDl 0
config *.gnb.cellularNic.bgTrafficGenerator[0].bgUE[13].generator.rtxRateUl 0.39726
config *.gnb.cellularNic.bgTrafficGenerator[0].bgUE[13].generator.cqiMeanDl 14
config *.gnb.cellularNic.bgTrafficGenerator[0].bgUE[13].generator.cqiStddevDl 0
config *.gnb.cellularNic.bgTrafficGenerator[0].bgUE[13].generator.cqiMeanUl 14
config *.gnb.cellularNic.bgTrafficGenerator[0].bgUE[13].generator.cqiStddevUl 0
config *.gnb.cellularNic.bgTrafficGenerator[0].bgUE[14].generator.rtxRateDl 0
config *.gnb.cellularNic.bgTrafficGenerator[0].bgUE[14].generator.rtxRateUl 0
config *.gnb.cellularNic.bgTrafficGenerator[0].bgUE[14].generator.cqiMeanDl 14
config *.gnb.cellularNic.bgTrafficGenerator[0].bgUE[14].generator.cqiStddevDl 0
config *.gnb.cellularNic.bgTrafficGenerator[0].bgUE[14].generator.cqiMeanUl 14
config *.gnb.cellularNic.bgTrafficGenerator[0].bgUE[14].generator.cqiStddevUl 0
config *.bgCell[0].bgTrafficGenerator.bgUE[0].generator.rtxRateDl 0
config *.bgCell[0].bgTrafficGenerator.bgUE[0].generator.rtxRateUl 0
config *.bgCell[0].bgTrafficGenerator.bgUE[0].generator.cqiMeanDl 15
config *.bgCell[0].bgTrafficGenerator.bgUE[0].generator.cqiStddevDl 0
config *.bgCell[0].bgTrafficGenerator.bgUE[0].generator.cqiMeanUl 14.0682
config *.bgCell[0].bgTrafficGenerator.bgUE[0].generator.cqiStddevUl 0.00726821
config *.bgCell[0].bgTrafficGenerator.bgUE[1].generator.rtxRateDl 0
config *.bgCell[0].bgTrafficGenerator.bgUE[1].generator.rtxRateUl 0
config *.bgCell[0].bgTrafficGenerator.bgUE[1].generator.cqiMeanDl 15
config *.bgCell[0].bgTrafficGenerator.bgUE[1].generator.cqiStddevDl 0
config *.bgCell[0].bgTrafficGenerator.bgUE[1].generator.cqiMeanUl 14.18
config *.bgCell[0].bgTrafficGenerator.bgUE[1].generator.cqiStddevUl 0.018
config *.bgCell[0].bgTrafficGenerator.bgUE[2].generator.rtxRateDl 0
config *.bgCell[0].bgTrafficGenerator.bgUE[2].generator.rtxRateUl 0
config *.bgCell[0].bgTrafficGenerator.bgUE[2].generator.cqiMeanDl 15
config *.bgCell[0].bgTrafficGenerator.bgUE[2].generator.cqiStddevDl 0
config *.bgCell[0].bgTrafficGenerator.bgUE[2].generator.cqiMeanUl 14
config *.bgCell[0].bgTrafficGenerator.bgUE[2].generator.cqiStddevUl 0
config *.bgCell[0].bgTrafficGenerator.bgUE[3].generator.rtxRateDl 0.545455
config *.bgCell[0].bgTrafficGenerator.bgUE[3].generator.rtxRateUl 0.166667
config *.bgCell[0].bgTrafficGenerator.bgUE[3].generator.cqiMeanDl 15
config *.bgCell[0].bgTrafficGenerator.bgUE[3].generator.cqiStddevDl 0
config *.bgCell[0].bgTrafficGenerator.bgUE[3].generator.cqiMeanUl 14.1204
config *.bgCell[0].bgTrafficGenerator.bgUE[3].generator.cqiStddevUl 0.0115826
config *.bgCell[0].bgTrafficGenerator.bgUE[4].generator.rtxRateDl 0
config *.bgCell[0].bgTrafficGenerator.bgUE[4].generator.rtxRateUl 0
config *.bgCell[0].bgTrafficGenerator.bgUE[4].generator.cqiMeanDl 15
config *.bgCell[0].bgTrafficGenerator.bgUE[4].generator.cqiStddevDl 0
config *.bgCell[0].bgTrafficGenerator.bgUE[4].generator.cqiMeanUl 14
config *.bgCell[0].bgTrafficGenerator.bgUE[4].generator.cqiStddevUl 0
config *.bgCell[0].bgTrafficGenerator.bgUE[5].generator.rtxRateDl 0
config *.bgCell[0].bgTrafficGenerator.bgUE[5].generator.rtxRateUl 0
config *.bgCell[0].bgTrafficGenerator.bgUE[5].generator.cqiMeanDl 15
config *.bgCell[0].bgTrafficGenerator.bgUE[5].generator.cqiStddevDl 0
config *.bgCell[0].bgTrafficGenerator.bgUE[5].generator.cqiMeanUl 14.0122
config *.bgCell[0].bgTrafficGenerator.bgUE[5].generator.cqiStddevUl 0.00134673
config *.bgCell[0].bgTrafficGenerator.bgUE[6].generator.rtxRateDl 0.505747
config *.bgCell[0].bgTrafficGenerator.bgUE[6].generator.rtxRateUl 0.342466
config *.bgCell[0].bgTrafficGenerator.bgUE[6].generator.cqiMeanDl 15
config *.bgCell[0].bgTrafficGenerator.bgUE[6].generator.cqiStddevDl 0
config *.bgCell[0].bgTrafficGenerator.bgUE[6].generator.cqiMeanUl 14.1712
config *.bgCell[0].bgTrafficGenerator.bgUE[6].generator.cqiStddevUl 0.0141713
config *.bgCell[0].bgTrafficGenerator.bgUE[7].generator.rtxRateDl 0
config *.bgCell[0].bgTrafficGenerator.bgUE[7].generator.rtxRateUl 0
config *.bgCell[0].bgTrafficGenerator.bgUE[7].generator.cqiMeanDl 15
config *.bgCell[0].bgTrafficGenerator.bgUE[7].generator.cqiStddevDl 0
config *.bgCell[0].bgTrafficGenerator.bgUE[7].generator.cqiMeanUl 15
config *.bgCell[0].bgTrafficGenerator.bgUE[7].generator.cqiStddevUl 0
config *.bgCell[0].bgTrafficGenerator.bgUE[8].generator.rtxRateDl 0
config *.bgCell[0].bgTrafficGenerator.bgUE[8].generator.rtxRateUl 0
config *.bgCell[0].bgTrafficGenerator.bgUE[8].generator.cqiMeanDl 15
config *.bgCell[0].bgTrafficGenerator.bgUE[8].generator.cqiStddevDl 0
config *.bgCell[0].bgTrafficGenerator.bgUE[8].generator.cqiMeanUl 15
config *.bgCell[0].bgTrafficGenerator.bgUE[8].generator.cqiStddevUl 0
config *.bgCell[0].bgTrafficGenerator.bgUE[9].generator.rtxRateDl 0
config *.bgCell[0].bgTrafficGenerator.bgUE[9].generator.rtxRateUl 0
config *.bgCell[0].bgTrafficGenerator.bgUE[9].generator.cqiMeanDl 15
config *.bgCell[0].bgTrafficGenerator.bgUE[9].generator.cqiStddevDl 0
config *.bgCell[0].bgTrafficGenerator.bgUE[9].generator.cqiMeanUl 14
config *.bgCell[0].bgTrafficGenerator.bgUE[9].generator.cqiStddevUl 0
config *.bgCell[0].bgTrafficGenerator.bgUE[10].generator.rtxRateDl 0
config *.bgCell[0].bgTrafficGenerator.bgUE[10].generator.rtxRateUl 0
config *.bgCell[0].bgTrafficGenerator.bgUE[10].generator.cqiMeanDl 15
config *.bgCell[0].bgTrafficGenerator.bgUE[10].generator.cqiStddevDl 0
config *.bgCell[0].bgTrafficGenerator.bgUE[10].generator.cqiMeanUl 14.0465
config *.bgCell[0].bgTrafficGenerator.bgUE[10].generator.cqiStddevUl 0.00501548
config *.bgCell[0].bgTrafficGenerator.bgUE[11].generator.rtxRateDl 0
config *.bgCell[0].bgTrafficGenerator.bgUE[11].generator.rtxRateUl 0
config *.bgCell[0].bgTrafficGenerator.bgUE[11].generator.cqiMeanDl 15
config *.bgCell[0].bgTrafficGenerator.bgUE[11].generator.cqiStddevDl 0
config *.bgCell[0].bgTrafficGenerator.bgUE[11].generator.cqiMeanUl 15
config *.bgCell[0].bgTrafficGenerator.bgUE[11].generator.cqiStddevUl 0
config *.bgCell[0].bgTrafficGenerator.bgUE[12].generator.rtxRateDl 0
config *.bgCell[0].bgTrafficGenerator.bgUE[12].generator.rtxRateUl 0.0206186
config *.bgCell[0].bgTrafficGenerator.bgUE[12].generator.cqiMeanDl 15
config *.bgCell[0].bgTrafficGenerator.bgUE[12].generator.cqiStddevDl 0
config *.bgCell[0].bgTrafficGenerator.bgUE[12].generator.cqiMeanUl 15
config *.bgCell[0].bgTrafficGenerator.bgUE[12].generator.cqiStddevUl 0
config *.bgCell[0].bgTrafficGenerator.bgUE[13].generator.rtxRateDl 0
config *.bgCell[0].bgTrafficGenerator.bgUE[13].generator.rtxRateUl 0
config *.bgCell[0].bgTrafficGenerator.bgUE[13].generator.cqiMeanDl 15
config *.bgCell[0].bgTrafficGenerator.bgUE[13].generator.cqiStddevDl 0
config *.bgCell[0].bgTrafficGenerator.bgUE[13].generator.cqiMeanUl 15
config *.bgCell[0].bgTrafficGenerator.bgUE[13].generator.cqiStddevUl 0
config *.bgCell[0].bgTrafficGenerator.bgUE[14].generator.rtxRateDl 0
config *.bgCell[0].bgTrafficGenerator.bgUE[14].generator.rtxRateUl 0
config *.bgCell[0].bgTrafficGenerator.bgUE[14].generator.cqiMeanDl 15
config *.bgCell[0].bgTrafficGenerator.bgUE[14].generator.cqiStddevDl 0
config *.bgCell[0].bgTrafficGenerator.bgUE[14].generator.cqiMeanUl 14.0682
config *.bgCell[0].bgTrafficGenerator.bgUE[14].generator.cqiStddevUl 0.00726821
config *.bgCell[1].bgTrafficGenerator.bgUE[0].generator.rtxRateDl 0
config *.bgCell[1].bgTrafficGenerator.bgUE[0].generator.rtxRateUl 0
config *.bgCell[1].bgTrafficGenerator.bgUE[0].generator.cqiMeanDl 15
config *.bgCell[1].bgTrafficGenerator.bgUE[0].generator.cqiStddevDl 0
config *.bgCell[1].bgTrafficGenerator.bgUE[0].generator.cqiMeanUl 15
config *.bgCell[1].bgTrafficGenerator.bgUE[0].generator.cqiStddevUl 0
config *.bgCell[1].bgTrafficGenerator.bgUE[1].generator.rtxRateDl 0
config *.bgCell[1].bgTrafficGenerator.bgUE[1].generator.rtxRateUl 0.137615
config *.bgCell[1].bgTrafficGenerator.bgUE[1].generator.cqiMeanDl 14
config *.bgCell[1].bgTrafficGenerator.bgUE[1].generator.cqiStddevDl 0
config *.bgCell[1].bgTrafficGenerator.bgUE[1].generator.cqiMeanUl 14.0092
config *.bgCell[1].bgTrafficGenerator.bgUE[1].generator.cqiStddevUl 0.00087874
config *.bgCell[1].bgTrafficGenerator.bgUE[2].generator.rtxRateDl 0
config *.bgCell[1].bgTrafficGenerator.bgUE[2].generator.rtxRateUl 0.0841121
config *.bgCell[1].bgTrafficGenerator.bgUE[2].generator.cqiMeanDl 14
config *.bgCell[1].bgTrafficGenerator.bgUE[2].generator.cqiStddevDl 0
config *.bgCell[1].bgTrafficGenerator.bgUE[2].generator.cqiMeanUl 14.0374
config *.bgCell[1].bgTrafficGenerator.bgUE[2].generator.cqiStddevUl 0.00361397
config *.bgCell[1].bgTrafficGenerator.bgUE[3].generator.rtxRateDl 0
config *.bgCell[1].bgTrafficGenerator.bgUE[3].generator.rtxRateUl 0
config *.bgCell[1].bgTrafficGenerator.bgUE[3].generator.cqiMeanDl 14
config *.bgCell[1].bgTrafficGenerator.bgUE[3].generator.cqiStddevDl 0
config *.bgCell[1].bgTrafficGenerator.bgUE[3].generator.cqiMeanUl 14
config *.bgCell[1].bgTrafficGenerator.bgUE[3].generator.cqiStddevUl 0
config *.bgCell[1].bgTrafficGenerator.bgUE[4].generator.rtxRateDl 0
config *.bgCell[1].bgTrafficGenerator.bgUE[4].generator.rtxRateUl 0.366667
config *.bgCell[1].bgTrafficGenerator.bgUE[4].generator.cqiMeanDl 15
config *.bgCell[1].bgTrafficGenerator.bgUE[4].generator.cqiStddevDl 0
config *.bgCell[1].bgTrafficGenerator.bgUE[4].generator.cqiMeanUl 14
config *.bgCell[1].bgTrafficGenerator.bgUE[4].generator.cqiStddevUl 0
config *.bgCell[1].bgTrafficGenerator.bgUE[5].generator.rtxRateDl 0
config *.bgCell[1].bgTrafficGenerator.bgUE[5].generator.rtxRateUl 0
config *.bgCell[1].bgTrafficGenerator.bgUE[5].generator.cqiMeanDl 14
config *.bgCell[1].bgTrafficGenerator.bgUE[5].generator.cqiStddevDl 0
config *.bgCell[1].bgTrafficGenerator.bgUE[5].generator.cqiMeanUl 14
config *.bgCell[1].bgTrafficGenerator.bgUE[5].generator.cqiStddevUl 0
config *.bgCell[1].bgTrafficGenerator.bgUE[6].generator.rtxRateDl 0
config *.bgCell[1].bgTrafficGenerator.bgUE[6].generator.rtxRateUl 0
config *.bgCell[1].bgTrafficGenerator.bgUE[6].generator.cqiMeanDl 15
config *.bgCell[1].bgTrafficGenerator.bgUE[6].generator.cqiStddevDl 0
config *.bgCell[1].bgTrafficGenerator.bgUE[6].generator.cqiMeanUl 15
config *.bgCell[1].bgTrafficGenerator.bgUE[6].generator.cqiStddevUl 0
config *.bgCell[1].bgTrafficGenerator.bgUE[7].generator.rtxRateDl 0
config *.bgCell[1].bgTrafficGenerator.bgUE[7].generator.rtxRateUl 0
config *.bgCell[1].bgTrafficGenerator.bgUE[7].generator.cqiMeanDl 15
config *.bgCell[1].bgTrafficGenerator.bgUE[7].generator.cqiStddevDl 0
config *.bgCell[1].bgTrafficGenerator.bgUE[7].generator.cqiMeanUl 15
config *.bgCell[1].bgTrafficGenerator.bgUE[7].generator.cqiStddevUl 0
config *.bgCell[1].bgTrafficGenerator.bgUE[8].generator.rtxRateDl 0.370968
config *.bgCell[1].bgTrafficGenerator.bgUE[8].generator.rtxRateUl 0.212121
config *.bgCell[1].bgTrafficGenerator.bgUE[8].generator.cqiMeanDl 14
config *.bgCell[1].bgTrafficGenerator.bgUE[8].generator.cqiStddevDl 0
config *.bgCell[1].bgTrafficGenerator.bgUE[8].generator.cqiMeanUl 14
config *.bgCell[1].bgTrafficGenerator.bgUE[8].generator.cqiStddevUl 0
config *.bgCell[1].bgTrafficGenerator.bgUE[9].generator.rtxRateDl 0.116279
config *.bgCell[1].bgTrafficGenerator.bgUE[9].generator.rtxRateUl 0
config *.bgCell[1].bgTrafficGenerator.bgUE[9].generator.cqiMeanDl 15
config *.bgCell[1].bgTrafficGenerator.bgUE[9].generator.cqiStddevDl 0
config *.bgCell[1].bgTrafficGenerator.bgUE[9].generator.cqiMeanUl 15
config *.bgCell[1].bgTrafficGenerator.bgUE[9].generator.cqiStddevUl 0
config *.bgCell[1].bgTrafficGenerator.bgUE[10].generator.rtxRateDl 0
config *.bgCell[1].bgTrafficGenerator.bgUE[10].generator.rtxRateUl 0
config *.bgCell[1].bgTrafficGenerator.bgUE[10].generator.cqiMeanDl 14.04
config *.bgCell[1].bgTrafficGenerator.bgUE[10].generator.cqiStddevDl 0.00565685
config *.bgCell[1].bgTrafficGenerator.bgUE[10].generator.cqiMeanUl 14
config *.bgCell[1].bgTrafficGenerator.bgUE[10].generator.cqiStddevUl 0
config *.bgCell[1].bgTrafficGenerator.bgUE[11].generator.rtxRateDl 0
config *.bgCell[1].bgTrafficGenerator.bgUE[11].generator.rtxRateUl 0.344828
config *.bgCell[1].bgTrafficGenerator.bgUE[11].generator.cqiMeanDl 15
config *.bgCell[1].bgTrafficGenerator.bgUE[11].generator.cqiStddevDl 0
config *.bgCell[1].bgTrafficGenerator.bgUE[11].generator.cqiMeanUl 14
config *.bgCell[1].bgTrafficGenerator.bgUE[11].generator.cqiStddevUl 0
config *.bgCell[1].bgTrafficGenerator.bgUE[12].generator.rtxRateDl 0
config *.bgCell[1].bgTrafficGenerator.bgUE[12].generator.rtxRateUl 0
config *.bgCell[1].bgTrafficGenerator.bgUE[12].generator.cqiMeanDl 15
config *.bgCell[1].bgTrafficGenerator.bgUE[12].generator.cqiStddevDl 0
config *.bgCell[1].bgTrafficGenerator.bgUE[12].generator.cqiMeanUl 15
config *.bgCell[1].bgTrafficGenerator.bgUE[12].generator.cqiStddevUl 0
config *.bgCell[1].bgTrafficGenerator.bgUE[13].generator.rtxRateDl 0
config *.bgCell[1].bgTrafficGenerator.bgUE[13].generator.rtxRateUl 0
config *.bgCell[1].bgTrafficGenerator.bgUE[13].generator.cqiMeanDl 15
config *.bgCell[1].bgTrafficGenerator.bgUE[13].generator.cqiStddevDl 0
config *.bgCell[1].bgTrafficGenerator.bgUE[13].generator.cqiMeanUl 15
config *.bgCell[1].bgTrafficGenerator.bgUE[13].generator.cqiStddevUl 0
config *.bgCell[1].bgTrafficGenerator.bgUE[14].generator.rtxRateDl 0
config *.bgCell[1].bgTrafficGenerator.bgUE[14].generator.rtxRateUl 0.0825688
config *.bgCell[1].bgTrafficGenerator.bgUE[14].generator.cqiMeanDl 14
config *.bgCell[1].bgTrafficGenerator.bgUE[14].generator.cqiStddevDl 0
config *.bgCell[1].bgTrafficGenerator.bgUE[14].generator.cqiMeanUl 14.0642
config *.bgCell[1].bgTrafficGenerator.bgUE[14].generator.cqiStddevUl 0.00615118
config *.bgCell[2].bgTrafficGenerator.bgUE[0].generator.rtxRateDl 0
config *.bgCell[2].bgTrafficGenerator.bgUE[0].generator.rtxRateUl 0.344
config *.bgCell[2].bgTrafficGenerator.bgUE[0].generator.cqiMeanDl 14.0204
config *.bgCell[2].bgTrafficGenerator.bgUE[0].generator.cqiStddevDl 0.00291545
config *.bgCell[2].bgTrafficGenerator.bgUE[0].generator.cqiMeanUl 11
config *.bgCell[2].bgTrafficGenerator.bgUE[0].generator.cqiStddevUl 0
config *.bgCell[2].bgTrafficGenerator.bgUE[1].generator.rtxRateDl 0
config *.bgCell[2].bgTrafficGenerator.bgUE[1].generator.rtxRateUl 0.397436
config *.bgCell[2].bgTrafficGenerator.bgUE[1].generator.cqiMeanDl 14
config *.bgCell[2].bgTrafficGenerator.bgUE[1].generator.cqiStddevDl 0
config *.bgCell[2].bgTrafficGenerator.bgUE[1].generator.cqiMeanUl 12
config *.bgCell[2].bgTrafficGenerator.bgUE[1].generator.cqiStddevUl 0
config *.bgCell[2].bgTrafficGenerator.bgUE[2].generator.rtxRateDl 0
config *.bgCell[2].bgTrafficGenerator.bgUE[2].generator.rtxRateUl 0.319444
config *.bgCell[2].bgTrafficGenerator.bgUE[2].generator.cqiMeanDl 15
config *.bgCell[2].bgTrafficGenerator.bgUE[2].generator.cqiStddevDl 0
config *.bgCell[2].bgTrafficGenerator.bgUE[2].generator.cqiMeanUl 15
config *.bgCell[2].bgTrafficGenerator.bgUE[2].generator.cqiStddevUl 0
config *.bgCell[2].bgTrafficGenerator.bgUE[3].generator.rtxRateDl 0
config *.bgCell[2].bgTrafficGenerator.bgUE[3].generator.rtxRateUl 0
config *.bgCell[2].bgTrafficGenerator.bgUE[3].generator.cqiMeanDl 14
config *.bgCell[2].bgTrafficGenerator.bgUE[3].generator.cqiStddevDl 0
config *.bgCell[2].bgTrafficGenerator.bgUE[3].generator.cqiMeanUl 12
config *.bgCell[2].bgTrafficGenerator.bgUE[3].generator.cqiStddevUl 0
config *.bgCell[2].bgTrafficGenerator.bgUE[4].generator.rtxRateDl 0
config *.bgCell[2].bgTrafficGenerator.bgUE[4].generator.rtxRateUl 0
config *.bgCell[2].bgTrafficGenerator.bgUE[4].generator.cqiMeanDl 15
config *.bgCell[2].bgTrafficGenerator.bgUE[4].generator.cqiStddevDl 0
config *.bgCell[2].bgTrafficGenerator.bgUE[4].generator.cqiMeanUl 15
config *.bgCell[2].bgTrafficGenerator.bgUE[4].generator.cqiStddevUl 0
config *.bgCell[2].bgTrafficGenerator.bgUE[5].generator.rtxRateDl 0
config *.bgCell[2].bgTrafficGenerator.bgUE[5].generator.rtxRateUl 0.366906
config *.bgCell[2].bgTrafficGenerator.bgUE[5].generator.cqiMeanDl 14
config *.bgCell[2].bgTrafficGenerator.bgUE[5].generator.cqiStddevDl 0
config *.bgCell[2].bgTrafficGenerator.bgUE[5].generator.cqiMeanUl 14
config *.bgCell[2].bgTrafficGenerator.bgUE[5].generator.cqiStddevUl 0
config *.bgCell[2].bgTrafficGenerator.bgUE[6].generator.rtxRateDl 0
config *.bgCell[2].bgTrafficGenerator.bgUE[6].generator.rtxRateUl 0.0617284
config *.bgCell[2].bgTrafficGenerator.bgUE[6].generator.cqiMeanDl 15
config *.bgCell[2].bgTrafficGenerator.bgUE[6].generator.cqiStddevDl 0
config *.bgCell[2].bgTrafficGenerator.bgUE[6].generator.cqiMeanUl 15
config *.bgCell[2].bgTrafficGenerator.bgUE[6].generator.cqiStddevUl 0
config *.bgCell[2].bgTrafficGenerator.bgUE[7].generator.rtxRateDl 0
config *.bgCell[2].bgTrafficGenerator.bgUE[7].generator.rtxRateUl 0.0666667
config *.bgCell[2].bgTrafficGenerator.bgUE[7].generator.cqiMeanDl 14
config *.bgCell[2].bgTrafficGenerator.bgUE[7].generator.cqiStddevDl 0
config *.bgCell[2].bgTrafficGenerator.bgUE[7].generator.cqiMeanUl 14.0381
config *.bgCell[2].bgTrafficGenerator.bgUE[7].generator.cqiStddevUl 0.00371771
config *.bgCell[2].bgTrafficGenerator.bgUE[8].generator.rtxRateDl 0
config *.bgCell[2].bgTrafficGenerator.bgUE[8].generator.rtxRateUl 0.0891089
config *.bgCell[2].bgTrafficGenerator.bgUE[8].generator.cqiMeanDl 14.0204
config *.bgCell[2].bgTrafficGenerator.bgUE[8].generator.cqiStddevDl 0.00291545
config *.bgCell[2].bgTrafficGenerator.bgUE[8].generator.cqiMeanUl 12
config *.bgCell[2].bgTrafficGenerator.bgUE[8].generator.cqiStddevUl 0
config *.bgCell[2].bgTrafficGenerator.bgUE[9].generator.rtxRateDl 0.431818
config *.bgCell[2].bgTrafficGenerator.bgUE[9].generator.rtxRateUl 0
config *.bgCell[2].bgTrafficGenerator.bgUE[9].generator.cqiMeanDl 15
config *.bgCell[2].bgTrafficGenerator.bgUE[9].generator.cqiStddevDl 0
config *.bgCell[2].bgTrafficGenerator.bgUE[9].generator.cqiMeanUl 14
config *.bgCell[2].bgTrafficGenerator.bgUE[9].generator.cqiStddevUl 0
config *.bgCell[2].bgTrafficGenerator.bgUE[10].generator.rtxRateDl 0
config *.bgCell[2].bgTrafficGenerator.bgUE[10].generator.rtxRateUl 0.435294
config *.bgCell[2].bgTrafficGenerator.bgUE[10].generator.cqiMeanDl 15
config *.bgCell[2].bgTrafficGenerator.bgUE[10].generator.cqiStddevDl 0
config *.bgCell[2].bgTrafficGenerator.bgUE[10].generator.cqiMeanUl 15
config *.bgCell[2].bgTrafficGenerator.bgUE[10].generator.cqiStddevUl 0
config *.bgCell[2].bgTrafficGenerator.bgUE[11].generator.rtxRateDl 0
config *.bgCell[2].bgTrafficGenerator.bgUE[11].generator.rtxRateUl 0
config *.bgCell[2].bgTrafficGenerator.bgUE[11].generator.cqiMeanDl 15
config *.bgCell[2].bgTrafficGenerator.bgUE[11].generator.cqiStddevDl 0
config *.bgCell[2].bgTrafficGenerator.bgUE[11].generator.cqiMeanUl 15
config *.bgCell[2].bgTrafficGenerator.bgUE[11].generator.cqiStddevUl 0
config *.bgCell[2].bgTrafficGenerator.bgUE[12].generator.rtxRateDl 0
config *.bgCell[2].bgTrafficGenerator.bgUE[12].generator.rtxRateUl 0.337931
config *.bgCell[2].bgTrafficGenerator.bgUE[12].generator.cqiMeanDl 15
config *.bgCell[2].bgTrafficGenerator.bgUE[12].generator.cqiStddevDl 0
config *.bgCell[2].bgTrafficGenerator.bgUE[12].generator.cqiMeanUl 15
config *.bgCell[2].bgTrafficGenerator.bgUE[12].generator.cqiStddevUl 0
config *.bgCell[2].bgTrafficGenerator.bgUE[13].generator.rtxRateDl 0.530612
config *.bgCell[2].bgTrafficGenerator.bgUE[13].generator.rtxRateUl 0.430464
config *.bgCell[2].bgTrafficGenerator.bgUE[13].generator.cqiMeanDl 14
config *.bgCell[2].bgTrafficGenerator.bgUE[13].generator.cqiStddevDl 0
config *.bgCell[2].bgTrafficGenerator.bgUE[13].generator.cqiMeanUl 13
config *.bgCell[2].bgTrafficGenerator.bgUE[13].generator.cqiStddevUl 0
config *.bgCell[2].bgTrafficGenerator.bgUE[14].generator.rtxRateDl 0
config *.bgCell[2].bgTrafficGenerator.bgUE[14].generator.rtxRateUl 0
config *.bgCell[2].bgTrafficGenerator.bgUE[14].generator.cqiMeanDl 15
config *.bgCell[2].bgTrafficGenerator.bgUE[14].generator.cqiStddevDl 0
config *.bgCell[2].bgTrafficGenerator.bgUE[14].generator.cqiMeanUl 14
config *.bgCell[2].bgTrafficGenerator.bgUE[14].generator.cqiStddevUl 0
config **.routingRecorder.enabled false
config output-scalar-file "results/CBR-DL/$msgLen=1000B, $sndInt=0.01s, $probCqi=false, $rbs=100, $u=2, $numBgUEs=15, $dist=50m, $numBgCells=3.sca"
config output-vector-file "results/CBR-DL/$msgLen=1000B, $sndInt=0.01s, $probCqi=false, $rbs=100, $u=2, $numBgUEs=15, $dist=50m, $numBgCells=3.vec"
config seed-set 0
config **.vector-recording false
config **.mobility.constraintAreaMaxX 2500m
config **.mobility.constraintAreaMaxY 2500m
config **.mobility.constraintAreaMinX -500m
config **.mobility.constraintAreaMinY -500m
config **.mobility.constraintAreaMinZ 0m
config **.mobility.constraintAreaMaxZ 0m
config **.mobility.initFromDisplayString false
config **.amcType "\"NrAmc\""
config **.pilotMode "\"AVG_CQI\""
config **.targetBler 0.01
config **.blerShift 5
config **.fbPeriod 40tti
config **.downlinkInterference false
config **.uplinkInterference false
config **.bgCellInterference true
config *.configurator.config "xmldoc(\"./demo.xml\")"

vector 0 SingleCell_Standalone.server.lo[0].lo rcvdPkFromHl:vector(packetBytes) ETV
attr interpolationmode none
attr recordingmode vector(packetBytes)
attr source packetReceivedFromUpper
attr title "packets received from higher layer, packetBytes"
vector 1 SingleCell_Standalone.server.lo[0].lo passedUpPk:vector(packetBytes) ETV
attr interpolationmode none
attr recordingmode vector(packetBytes)
attr source packetSentToUpper
attr title "packets passed to higher layer, packetBytes"
vector 2 SingleCell_Standalone.server.lo[0] packetDropInterfaceDown:vector(packetBytes) ETV
attr interpolationmode none
attr recordingmode vector(packetBytes)
attr source packetDropReasonIsInterfaceDown(packetDropped)
attr title "packet drops: interface down, packetBytes"
vector 3 SingleCell_Standalone.server.lo[0] packetDropNoCarrier:vector(packetBytes) ETV
attr interpolationmode none
attr recordingmode vector(packetBytes)
attr source packetDropReasonIsNoCarrier(packetDropped)
attr title "packet drops: no carrier, packetBytes"
vector 4 SingleCell_Standalone.server.ppp[0].queue queueLength:vector ETV
attr autoWarmupFilter false
attr interpolationmode sample-hold
attr recordingmode vector
attr source "warmup(atomic(constant0(packetPushEnded) + count(packetPushStarted) - count(packetPulled) - count(packetRemoved) - count(packetDropped)))"
attr title "queue length"
attr unit pk
vector 5 SingleCell_Standalone.server.ppp[0].queue queueBitLength:vector ETV
attr autoWarmupFilter false
attr interpolationmode sample-hold
attr recordingmode vector
attr source "warmup(atomic(constant0(packetPushEnded) + sum(packetLength(packetPushStarted)) - sum(packetLength(packetPulled)) - sum(packetLength(packetRemoved)) - sum(packetLength(packetDropped))))"
attr title "queue bit length"
attr unit b
vector 6 SingleCell_Standalone.server.ppp[0].queue queueingTime:vector ETV
attr interpolationmode none
attr recordingmode vector
attr source queueingTime(packetPulled)
attr title "queueing times"
attr unit s
vector 7 SingleCell_Standalone.server.ppp[0].queue incomingPacketLengths:vector ETV
attr interpolationmode none
attr recordingmode vector
attr source packetLength(packetPushStarted)
attr title "incoming packet lengths"
attr unit b
vector 8 SingleCell_Standalone.server.ppp[0].queue incomingDataRate:vector ETV
attr interpolationmode linear
attr recordingmode vector
attr source throughput(packetPushStarted)
attr title "incoming datarate"
attr unit bps
vector 9 SingleCell_Standalone.server.ppp[0].queue outgoingPacketLengths:vector ETV
attr interpolationmode none
attr recordingmode vector
attr source packetLength(packetPulled)
attr title "outgoing packet lengths"
attr unit b
vector 10 SingleCell_Standalone.server.ppp[0].queue outgoingDataRate:vector ETV
attr interpolationmode linear
attr recordingmode vector
attr source throughput(packetPulled)
attr title "outgoing datarate"
attr unit bps
vector 11 SingleCell_Standalone.server.ppp[0].queue droppedPacketLengthsQueueOverflow:vector ETV
attr interpolationmode none
attr recordingmode vector
attr source packetLength(packetDropReasonIsQueueOverflow(packetDropped))
attr title "dropped packet lengths: queue overflow"
attr unit b
vector 12 SingleCell_Standalone.server.ppp[0].queue flowQueueingTime:vector ETV
attr interpolationmode none
attr recordingmode vector
attr source queueingTime(demuxFlow(packetPulled))
attr title "flow queueing times"
attr unit s
vector 13 SingleCell_Standalone.server.ppp[0].queue flowIncomingDataRate:vector ETV
attr interpolationmode linear
attr recordingmode vector
attr source throughput(flowPacketLength(demuxFlow(packetPushStarted)))
attr title "flow specific incoming data rate"
attr unit bps
vector 14 SingleCell_Standalone.server.ppp[0].queue flowOutgoingDataRate:vector ETV
attr interpolationmode linear
attr recordingmode vector
attr source throughput(flowPacketLength(demuxFlow(packetPulled)))
attr title "flow specific outgoing data rate"
attr unit bps
vector 15 SingleCell_Standalone.server.ppp[0].ppp transmissionState:vector ETV
attr interpolationmode sample-hold
attr recordingmode vector
attr source transmissionStateChanged
attr title "tx state"
vector 16 SingleCell_Standalone.server.ppp[0].ppp txPk:vector(packetBytes) ETV
attr interpolationmode none
attr recordingmode vector(packetBytes)
attr source packetSentToLower
attr title "packets transmitted, packetBytes"
vector 17 SingleCell_Standalone.server.ppp[0].ppp rxPkOk:vector(packetBytes) ETV
attr interpolationmode none
attr recordingmode vector(packetBytes)
attr source rxPkOk
attr title "packets received OK, packetBytes"
vector 18 SingleCell_Standalone.server.ppp[0].ppp packetDropIncorrectlyReceived:vector(packetBytes) ETV
attr interpolationmode none
attr recordingmode vector(packetBytes)
attr source packetDropReasonIsIncorrectlyReceived(packetDropped)
attr title "packet drop: incorrectly received, packetBytes"
vector 19 SingleCell_Standalone.server.ppp[0].ppp packetDropInterfaceDown:vector(packetBytes) ETV
attr interpolationmode none
attr recordingmode vector(packetBytes)
attr source packetDropReasonIsInterfaceDown(packetDropped)
attr title "packet drop: interface down, packetBytes"
vector 20 SingleCell_Standalone.server.ppp[0].ppp rcvdPkFromHl:vector(packetBytes) ETV
attr interpolationmode none
attr recordingmode vector(packetBytes)
attr source packetReceivedFromUpper
attr title "packets received from higher layer, packetBytes"
vector 21 SingleCell_Standalone.server.ppp[0].ppp passedUpPk:vector(packetBytes) ETV
attr interpolationmode none
attr recordingmode vector(packetBytes)
attr source packetSentToUpper
attr title "packets passed to higher layer, packetBytes"
vector 22 SingleCell_Standalone.server.ppp[0] packetDropInterfaceDown:vector(packetBytes) ETV
attr interpolationmode none
attr recordingmode vector(packetBytes)
attr source packetDropReasonIsInterfaceDown(packetDropped)
attr title "packet drops: interface down, packetBytes"
vector 23 SingleCell_Standalone.server.ppp[0] packetDropNoCarrier:vector(packetBytes) ETV
attr interpolationmode none
attr recordingmode vector(packetBytes)
attr source packetDropReasonIsNoCarrier(packetDropped)
attr title "packet drops: no carrier, packetBytes"
vector 24 SingleCell_Standalone.server.ipv4.ip packetDropAddressResolutionFailed:vector(packetBytes) ETV
attr interpolationmode none
attr recordingmode vector(packetBytes)
attr source packetDropReasonIsAddressResolutionFailed(packetDropped)
attr title "packet drop: address resolution failed, packetBytes"
vector 25 SingleCell_Standalone.server.ipv4.ip packetDropHopLimitReached:vector(packetBytes) ETV
attr interpolationmode none
attr recordingmode vector(packetBytes)
attr source packetDropReasonIsHopLimitReached(packetDropped)
attr title "packet drop: hop limit reached, packetBytes"
vector 26 SingleCell_Standalone.server.ipv4.ip packetDropForwardingDisabled:vector(packetBytes) ETV
attr interpolationmode none
attr recordingmode vector(packetBytes)
attr source packetDropReasonIsForwardingDisabled(packetDropped)
attr title "packet drop: forwarding disabled, packetBytes"
vector 27 SingleCell_Standalone.server.ipv4.ip packetDropNoInterfaceFound:vector(packetBytes) ETV
attr interpolationmode none
attr recordingmode vector(packetBytes)
attr source packetDropReasonIsNoInterfaceFound(packetDropped)
attr title "packet drop: no interface found, packetBytes"
vector 28 SingleCell_Standalone.server.ipv4.ip packetDropNoRouteFound:vector(packetBytes) ETV
attr interpolationmode none
attr recordingmode vector(packetBytes)
attr source packetDropReasonIsNoRouteFound(packetDropped)
attr title "packet drop: no route found, packetBytes"
vector 29 SingleCell_Standalone.server.ipv4.ip packetDropUndefined:vector(packetBytes) ETV
attr interpolationmode none
attr recordingmode vector(packetBytes)
attr source packetDropReasonIsUndefined(packetDropped)
attr title "packet drop: undefined, packetBytes"
vector 30 SingleCell_Standalone.server.ipv4.arp arpRequestSent:vector(packetBytes) ETV
attr recordingmode vector(packetBytes)
attr source arpRequestSent
attr title "ARP request sent, packetBytes"
vector 31 SingleCell_Standalone.server.ipv4.arp arpReplySent:vector(packetBytes) ETV
attr recordingmode vector(packetBytes)
attr source arpReplySent
attr title "ARP replies sent, packetBytes"
vector 32 SingleCell_Standalone.server.udp packetSent:vector(packetBytes) ETV
attr interpolationmode none
attr recordingmode vector(packetBytes)
attr source packetSent
attr title "packets sent, packetBytes"
vector 33 SingleCell_Standalone.server.udp packetReceived:vector(packetBytes) ETV
attr interpolationmode none
attr recordingmode vector(packetBytes)
attr source packetReceived
attr title "packets received, packetBytes"
vector 34 SingleCell_Standalone.server.udp passedUpPk:vector(count) ETV
attr interpolationmode none
attr recordingmode vector(count)
attr source packetSentToUpper
attr title "packets passed up, count"
vector 35 SingleCell_Standalone.server.udp droppedPkWrongPort:vector(count) ETV
attr interpolationmode none
attr recordingmode vector(count)
attr source packetDropReasonIsNoPortFound(packetDropped)
attr title "packets dropped (wrong port), count"
vector 36 SingleCell_Standalone.server.udp droppedPkBadChecksum:vector(count) ETV
attr interpolationmode none
attr recordingmode vector(count)
attr source packetDropReasonIsIncorrectlyReceived(packetDropped)
attr title "packets dropped (checksum error), count"
vector 37 SingleCell_Standalone.server.app[0] cbrGeneratedThroughput:vector ETV
attr recordingmode vector
attr source cbrGeneratedThroughput
attr title "Throughput generated by the application"
attr unit Bps
vector 38 SingleCell_Standalone.server.app[0] cbrSentPkt:vector ETV
attr recordingmode vector
attr source cbrSentPkt
attr title "Sent packet ID"
attr unit ""
vector 39 SingleCell_Standalone.router.lo[0].lo rcvdPkFromHl:vector(packetBytes) ETV
attr interpolationmode none
attr recordingmode vector(packetBytes)
attr source packetReceivedFromUpper
attr title "packets received from higher layer, packetBytes"
vector 40 SingleCell_Standalone.router.lo[0].lo passedUpPk:vector(packetBytes) ETV
attr interpolationmode none
attr recordingmode vector(packetBytes)
attr source packetSentToUpper
attr title "packets passed to higher layer, packetBytes"
vector 41 SingleCell_Standalone.router.lo[0] packetDropInterfaceDown:vector(packetBytes) ETV
attr interpolationmode none
attr recordingmode vector(packetBytes)
attr source packetDropReasonIsInterfaceDown(packetDropped)
attr title "packet drops: interface down, packetBytes"
vector 42 SingleCell_Standalone.router.lo[0] packetDropNoCarrier:vector(packetBytes) ETV
attr interpolationmode none
attr recordingmode vector(packetBytes)
attr source packetDropReasonIsNoCarrier(packetDropped)
attr title "packet drops: no carrier, packetBytes"
vector 43 SingleCell_Standalone.router.ppp[0].queue queueLength:vector ETV
attr autoWarmupFilter false
attr interpolationmode sample-hold
attr recordingmode vector
attr source "warmup(atomic(constant0(packetPushEnded) + count(packetPushStarted) - count(packetPulled) - count(packetRemoved) - count(packetDropped)))"
attr title "queue length"
attr unit pk
vector 44 SingleCell_Standalone.router.ppp[0].queue queueBitLength:vector ETV
attr autoWarmupFilter false
attr interpolationmode sample-hold
attr recordingmode vector
attr source "warmup(atomic(constant0(packetPushEnded) + sum(packetLength(packetPushStarted)) - sum(packetLength(packetPulled)) - sum(packetLength(packetRemoved)) - sum(packetLength(packetDropped))))"
attr title "queue bit length"
attr unit b
vector 45 SingleCell_Standalone.router.ppp[0].queue queueingTime:vector ETV
attr interpolationmode none
attr recordingmode vector
attr source queueingTime(packetPulled)
attr title "queueing times"
attr unit s
vector 46 SingleCell_Standalone.router.ppp[0].queue incomingPacketLengths:vector ETV
attr interpolationmode none
attr recordingmode vector
attr source packetLength(packetPushStarted)
attr title "incoming packet lengths"
attr unit b
vector 47 SingleCell_Standalone.router.ppp[0].queue incomingDataRate:vector ETV
attr interpolationmode linear
attr recordingmode vector
attr source throughput(packetPushStarted)
attr title "incoming datarate"
attr unit bps
vector 48 SingleCell_Standalone.router.ppp[0].queue outgoingPacketLengths:vector ETV
attr interpolationmode none
attr recordingmode vector
attr source packetLength(packetPulled)
attr title "outgoing packet lengths"
attr unit b
vector 49 SingleCell_Standalone.router.ppp[0].queue outgoingDataRate:vector ETV
attr interpolationmode linear
attr recordingmode vector
attr source throughput(packetPulled)
attr title "outgoing datarate"
attr unit bps
vector 50 SingleCell_Standalone.router.ppp[0].queue droppedPacketLengthsQueueOverflow:vector ETV
attr interpolationmode none
attr recordingmode vector
attr source packetLength(packetDropReasonIsQueueOverflow(packetDropped))
attr title "dropped packet lengths: queue overflow"
attr unit b
vector 51 SingleCell_Standalone.router.ppp[0].queue flowQueueingTime:vector ETV
attr interpolationmode none
attr recordingmode vector
attr source queueingTime(demuxFlow(packetPulled))
attr title "flow queueing times"
attr unit s
vector 52 SingleCell_Standalone.router.ppp[0].queue flowIncomingDataRate:vector ETV
attr interpolationmode linear
attr recordingmode vector
attr source throughput(flowPacketLength(demuxFlow(packetPushStarted)))
attr title "flow specific incoming data rate"
attr unit bps
vector 53 SingleCell_Standalone.router.ppp[0].queue flowOutgoingDataRate:vector ETV
attr interpolationmode linear
attr recordingmode vector
attr source throughput(flowPacketLength(demuxFlow(packetPulled)))
attr title "flow specific outgoing data rate"
attr unit bps
vector 54 SingleCell_Standalone.router.ppp[0].ppp transmissionState:vector ETV
attr interpolationmode sample-hold
attr recordingmode vector
attr source transmissionStateChanged
attr title "tx state"
vector 55 SingleCell_Standalone.router.ppp[0].ppp txPk:vector(packetBytes) ETV
attr interpolationmode none
attr recordingmode vector(packetBytes)
attr source packetSentToLower
attr title "packets transmitted, packetBytes"
vector 56 SingleCell_Standalone.router.ppp[0].ppp rxPkOk:vector(packetBytes) ETV
attr interpolationmode none
attr recordingmode vector(packetBytes)
attr source rxPkOk
attr title "packets received OK, packetBytes"
vector 57 SingleCell_Standalone.router.ppp[0].ppp packetDropIncorrectlyReceived:vector(packetBytes) ETV
attr interpolationmode none
attr recordingmode vector(packetBytes)
attr source packetDropReasonIsIncorrectlyReceived(packetDropped)
attr title "packet drop: incorrectly received, packetBytes"
vector 58 SingleCell_Standalone.router.ppp[0].ppp packetDropInterfaceDown:vector(packetBytes) ETV
attr interpolationmode none
attr recordingmode vector(packetBytes)
attr source packetDropReasonIsInterfaceDown(packetDropped)
attr title "packet drop: interface down, packetBytes"
vector 59 SingleCell_Standalone.router.ppp[0].ppp rcvdPkFromHl:vector(packetBytes) ETV
attr interpolationmode none
attr recordingmode vector(packetBytes)
attr source packetReceivedFromUpper
attr title "packets received from higher layer, packetBytes"
vector 60 SingleCell_Standalone.router.ppp[0].ppp passedUpPk:vector(packetBytes) ETV
attr interpolationmode none
attr recordingmode vector(packetBytes)
attr source packetSentToUpper
attr title "packets passed to higher layer, packetBytes"
vector 61 SingleCell_Standalone.router.ppp[0] packetDropInterfaceDown:vector(packetBytes) ETV
attr interpolationmode none
attr recordingmode vector(packetBytes)
attr source packetDropReasonIsInterfaceDown(packetDropped)
attr title "packet drops: interface down, packetBytes"
vector 62 SingleCell_Standalone.router.ppp[0] packetDropNoCarrier:vector(packetBytes) ETV
attr interpolationmode none
attr recordingmode vector(packetBytes)
attr source packetDropReasonIsNoCarrier(packetDropped)
attr title "packet drops: no carrier, packetBytes"
vector 63 SingleCell_Standalone.router.ppp[1].queue queueLength:vector ETV
attr autoWarmupFilter false
attr interpolationmode sample-hold
attr recordingmode vector
attr source "warmup(atomic(constant0(packetPushEnded) + count(packetPushStarted) - count(packetPulled) - count(packetRemoved) - count(packetDropped)))"
attr title "queue length"
attr unit pk
vector 64 SingleCell_Standalone.router.ppp[1].queue queueBitLength:vector ETV
attr autoWarmupFilter false
attr interpolationmode sample-hold
attr recordingmode vector
attr source "warmup(atomic(constant0(packetPushEnded) + sum(packetLength(packetPushStarted)) - sum(packetLength(packetPulled)) - sum(packetLength(packetRemoved)) - sum(packetLength(packetDropped))))"
attr title "queue bit length"
attr unit b
vector 65 SingleCell_Standalone.router.ppp[1].queue queueingTime:vector ETV
attr interpolationmode none
attr recordingmode vector
attr source queueingTime(packetPulled)
attr title "queueing times"
attr unit s
vector 66 SingleCell_Standalone.router.ppp[1].queue incomingPacketLengths:vector ETV
attr interpolationmode none
attr recordingmode vector
attr source packetLength(packetPushStarted)
attr title "incoming packet lengths"
attr unit b
vector 67 SingleCell_Standalone.router.ppp[1].queue incomingDataRate:vector ETV
attr interpolationmode linear
attr recordingmode vector
attr source throughput(packetPushStarted)
attr title "incoming datarate"
attr unit bps
vector 68 SingleCell_Standalone.router.ppp[1].queue outgoingPacketLengths:vector ETV
attr interpolationmode none
attr recordingmode vector
attr source packetLength(packetPulled)
attr title "outgoing packet lengths"
attr unit b
vector 69 SingleCell_Standalone.router.ppp[1].queue outgoingDataRate:vector ETV
attr interpolationmode linear
attr recordingmode vector
attr source throughput(packetPulled)
attr title "outgoing datarate"
attr unit bps
vector 70 SingleCell_Standalone.router.ppp[1].queue droppedPacketLengthsQueueOverflow:vector ETV
attr interpolationmode none
attr recordingmode vector
attr source packetLength(packetDropReasonIsQueueOverflow(packetDropped))
attr title "dropped packet lengths: queue overflow"
attr unit b
vector 71 SingleCell_Standalone.router.ppp[1].queue flowQueueingTime:vector ETV
attr interpolationmode none
attr recordingmode vector
attr source queueingTime(demuxFlow(packetPulled))
attr title "flow queueing times"
attr unit s
vector 72 SingleCell_Standalone.router.ppp[1].queue flowIncomingDataRate:vector ETV
attr interpolationmode linear
attr recordingmode vector
attr source throughput(flowPacketLength(demuxFlow(packetPushStarted)))
attr title "flow specific incoming data rate"
attr unit bps
vector 73 SingleCell_Standalone.router.ppp[1].queue flowOutgoingDataRate:vector ETV
attr interpolationmode linear
attr recordingmode vector
attr source throughput(flowPacketLength(demuxFlow(packetPulled)))
attr title "flow specific outgoing data rate"
attr unit bps
vector 74 SingleCell_Standalone.router.ppp[1].ppp transmissionState:vector ETV
attr interpolationmode sample-hold
attr recordingmode vector
attr source transmissionStateChanged
attr title "tx state"
vector 75 SingleCell_Standalone.router.ppp[1].ppp txPk:vector(packetBytes) ETV
attr interpolationmode none
attr recordingmode vector(packetBytes)
attr source packetSentToLower
attr title "packets transmitted, packetBytes"
vector 76 SingleCell_Standalone.router.ppp[1].ppp rxPkOk:vector(packetBytes) ETV
attr interpolationmode none
attr recordingmode vector(packetBytes)
attr source rxPkOk
attr title "packets received OK, packetBytes"
vector 77 SingleCell_Standalone.router.ppp[1].ppp packetDropIncorrectlyReceived:vector(packetBytes) ETV
attr interpolationmode none
attr recordingmode vector(packetBytes)
attr source packetDropReasonIsIncorrectlyReceived(packetDropped)
attr title "packet drop: incorrectly received, packetBytes"
vector 78 SingleCell_Standalone.router.ppp[1].ppp packetDropInterfaceDown:vector(packetBytes) ETV
attr interpolationmode none
attr recordingmode vector(packetBytes)
attr source packetDropReasonIsInterfaceDown(packetDropped)
attr title "packet drop: interface down, packetBytes"
vector 79 SingleCell_Standalone.router.ppp[1].ppp rcvdPkFromHl:vector(packetBytes) ETV
attr interpolationmode none
attr recordingmode vector(packetBytes)
attr source packetReceivedFromUpper
attr title "packets received from higher layer, packetBytes"
vector 80 SingleCell_Standalone.router.ppp[1].ppp passedUpPk:vector(packetBytes) ETV
attr interpolationmode none
attr recordingmode vector(packetBytes)
attr source packetSentToUpper
attr title "packets passed to higher layer, packetBytes"
vector 81 SingleCell_Standalone.router.ppp[1] packetDropInterfaceDown:vector(packetBytes) ETV
attr interpolationmode none
attr recordingmode vector(packetBytes)
attr source packetDropReasonIsInterfaceDown(packetDropped)
attr title "packet drops: interface down, packetBytes"
vector 82 SingleCell_Standalone.router.ppp[1] packetDropNoCarrier:vector(packetBytes) ETV
attr interpolationmode none
attr recordingmode vector(packetBytes)
attr source packetDropReasonIsNoCarrier(packetDropped)
attr title "packet drops: no carrier, packetBytes"
vector 83 SingleCell_Standalone.router.ipv4.ip packetDropAddressResolutionFailed:vector(packetBytes) ETV
attr interpolationmode none
attr recordingmode vector(packetBytes)
attr source packetDropReasonIsAddressResolutionFailed(packetDropped)
attr title "packet drop: address resolution failed, packetBytes"
vector 84 SingleCell_Standalone.router.ipv4.ip packetDropHopLimitReached:vector(packetBytes) ETV
attr interpolationmode none
attr recordingmode vector(packetBytes)
attr source packetDropReasonIsHopLimitReached(packetDropped)
attr title "packet drop: hop limit reached, packetBytes"
vector 85 SingleCell_Standalone.router.ipv4.ip packetDropForwardingDisabled:vector(packetBytes) ETV
attr interpolationmode none
attr recordingmode vector(packetBytes)
attr source packetDropReasonIsForwardingDisabled(packetDropped)
attr title "packet drop: forwarding disabled, packetBytes"
vector 86 SingleCell_Standalone.router.ipv4.ip packetDropNoInterfaceFound:vector(packetBytes) ETV
attr interpolationmode none
attr recordingmode vector(packetBytes)
attr source packetDropReasonIsNoInterfaceFound(packetDropped)
attr title "packet drop: no interface found, packetBytes"
vector 87 SingleCell_Standalone.router.ipv4.ip packetDropNoRouteFound:vector(packetBytes) ETV
attr interpolationmode none
attr recordingmode vector(packetBytes)
attr source packetDropReasonIsNoRouteFound(packetDropped)
attr title "packet drop: no route found, packetBytes"
vector 88 SingleCell_Standalone.router.ipv4.ip packetDropUndefined:vector(packetBytes) ETV
attr interpolationmode none
attr recordingmode vector(packetBytes)
attr source packetDropReasonIsUndefined(packetDropped)
attr title "packet drop: undefined, packetBytes"
vector 89 SingleCell_Standalone.router.ipv4.arp arpRequestSent:vector(packetBytes) ETV
attr recordingmode vector(packetBytes)
attr source arpRequestSent
attr title "ARP request sent, packetBytes"
vector 90 SingleCell_Standalone.router.ipv4.arp arpReplySent:vector(packetBytes) ETV
attr recordingmode vector(packetBytes)
attr source arpReplySent
attr title "ARP replies sent, packetBytes"
vector 91 SingleCell_Standalone.upf.lo[0].lo rcvdPkFromHl:vector(packetBytes) ETV
attr interpolationmode none
attr recordingmode vector(packetBytes)
attr source packetReceivedFromUpper
attr title "packets received from higher layer, packetBytes"
vector 92 SingleCell_Standalone.upf.lo[0].lo passedUpPk:vector(packetBytes) ETV
attr interpolationmode none
attr recordingmode vector(packetBytes)
attr source packetSentToUpper
attr title "packets passed to higher layer, packetBytes"
vector 93 SingleCell_Standalone.upf.lo[0] packetDropInterfaceDown:vector(packetBytes) ETV
attr interpolationmode none
attr recordingmode vector(packetBytes)
attr source packetDropReasonIsInterfaceDown(packetDropped)
attr title "packet drops: interface down, packetBytes"
vector 94 SingleCell_Standalone.upf.lo[0] packetDropNoCarrier:vector(packetBytes) ETV
attr interpolationmode none
attr recordingmode vector(packetBytes)
attr source packetDropReasonIsNoCarrier(packetDropped)
attr title "packet drops: no carrier, packetBytes"
vector 95 SingleCell_Standalone.upf.ppp[0].queue queueLength:vector ETV
attr autoWarmupFilter false
attr interpolationmode sample-hold
attr recordingmode vector
attr source "warmup(atomic(constant0(packetPushEnded) + count(packetPushStarted) - count(packetPulled) - count(packetRemoved) - count(packetDropped)))"
attr title "queue length"
attr unit pk
vector 96 SingleCell_Standalone.upf.ppp[0].queue queueBitLength:vector ETV
attr autoWarmupFilter false
attr interpolationmode sample-hold
attr recordingmode vector
attr source "warmup(atomic(constant0(packetPushEnded) + sum(packetLength(packetPushStarted)) - sum(packetLength(packetPulled)) - sum(packetLength(packetRemoved)) - sum(packetLength(packetDropped))))"
attr title "queue bit length"
attr unit b
vector 97 SingleCell_Standalone.upf.ppp[0].queue queueingTime:vector ETV
attr interpolationmode none
attr recordingmode vector
attr source queueingTime(packetPulled)
attr title "queueing times"
attr unit s
vector 98 SingleCell_Standalone.upf.ppp[0].queue incomingPacketLengths:vector ETV
attr interpolationmode none
attr recordingmode vector
attr source packetLength(packetPushStarted)
attr title "incoming packet lengths"
attr unit b
vector 99 SingleCell_Standalone.upf.ppp[0].queue incomingDataRate:vector ETV
attr interpolationmode linear
attr recordingmode vector
attr source throughput(packetPushStarted)
attr title "incoming datarate"
attr unit bps
vector 100 SingleCell_Standalone.upf.ppp[0].queue outgoingPacketLengths:vector ETV
attr interpolationmode none
attr recordingmode vector
attr source packetLength(packetPulled)
attr title "outgoing packet lengths"
attr unit b
vector 101 SingleCell_Standalone.upf.ppp[0].queue outgoingDataRate:vector ETV
attr interpolationmode linear
attr recordingmode vector
attr source throughput(packetPulled)
attr title "outgoing datarate"
attr unit bps
vector 102 SingleCell_Standalone.upf.ppp[0].queue droppedPacketLengthsQueueOverflow:vector ETV
attr interpolationmode none
attr recordingmode vector
attr source packetLength(packetDropReasonIsQueueOverflow(packetDropped))
attr title "dropped packet lengths: queue overflow"
attr unit b
vector 103 SingleCell_Standalone.upf.ppp[0].queue flowQueueingTime:vector ETV
attr interpolationmode none
attr recordingmode vector
attr source queueingTime(demuxFlow(packetPulled))
attr title "flow queueing times"
attr unit s
vector 104 SingleCell_Standalone.upf.ppp[0].queue flowIncomingDataRate:vector ETV
attr interpolationmode linear
attr recordingmode vector
attr source throughput(flowPacketLength(demuxFlow(packetPushStarted)))
attr title "flow specific incoming data rate"
attr unit bps
vector 105 SingleCell_Standalone.upf.ppp[0].queue flowOutgoingDataRate:vector ETV
attr interpolationmode linear
attr recordingmode vector
attr source throughput(flowPacketLength(demuxFlow(packetPulled)))
attr title "flow specific outgoing data rate"
attr unit bps
vector 106 SingleCell_Standalone.upf.ppp[0].ppp transmissionState:vector ETV
attr interpolationmode sample-hold
attr recordingmode vector
attr source transmissionStateChanged
attr title "tx state"
vector 107 SingleCell_Standalone.upf.ppp[0].ppp txPk:vector(packetBytes) ETV
attr interpolationmode none
attr recordingmode vector(packetBytes)
attr source packetSentToLower
attr title "packets transmitted, packetBytes"
vector 108 SingleCell_Standalone.upf.ppp[0].ppp rxPkOk:vector(packetBytes) ETV
attr interpolationmode none
attr recordingmode vector(packetBytes)
attr source rxPkOk
attr title "packets received OK, packetBytes"
vector 109 SingleCell_Standalone.upf.ppp[0].ppp packetDropIncorrectlyReceived:vector(packetBytes) ETV
attr interpolationmode none
attr recordingmode vector(packetBytes)
attr source packetDropReasonIsIncorrectlyReceived(packetDropped)
attr title "packet drop: incorrectly received, packetBytes"
vector 110 SingleCell_Standalone.upf.ppp[0].ppp packetDropInterfaceDown:vector(packetBytes) ETV
attr interpolationmode none
attr recordingmode vector(packetBytes)
attr source packetDropReasonIsInterfaceDown(packetDropped)
attr title "packet drop: interface down, packetBytes"
vector 111 SingleCell_Standalone.upf.ppp[0].ppp rcvdPkFromHl:vector(packetBytes) ETV
attr interpolationmode none
attr recordingmode vector(packetBytes)
attr source packetReceivedFromUpper
attr title "packets received from higher layer, packetBytes"
vector 112 SingleCell_Standalone.upf.ppp[0].ppp passedUpPk:vector(packetBytes) ETV
attr interpolationmode none
attr recordingmode vector(packetBytes)
attr source packetSentToUpper
attr title "packets passed to higher layer, packetBytes"
vector 113 SingleCell_Standalone.upf.ppp[0] packetDropInterfaceDown:vector(packetBytes) ETV
attr interpolationmode none
attr recordingmode vector(packetBytes)
attr source packetDropReasonIsInterfaceDown(packetDropped)
attr title "packet drops: interface down, packetBytes"
vector 114 SingleCell_Standalone.upf.ppp[0] packetDropNoCarrier:vector(packetBytes) ETV
attr interpolationmode none
attr recordingmode vector(packetBytes)
attr source packetDropReasonIsNoCarrier(packetDropped)
attr title "packet drops: no carrier, packetBytes"
vector 115 SingleCell_Standalone.upf.ipv4.ip packetDropAddressResolutionFailed:vector(packetBytes) ETV
attr interpolationmode none
attr recordingmode vector(packetBytes)
attr source packetDropReasonIsAddressResolutionFailed(packetDropped)
attr title "packet drop: address resolution failed, packetBytes"
vector 116 SingleCell_Standalone.upf.ipv4.ip packetDropHopLimitReached:vector(packetBytes) ETV
attr interpolationmode none
attr recordingmode vector(packetBytes)
attr source packetDropReasonIsHopLimitReached(packetDropped)
attr title "packet drop: hop limit reached, packetBytes"
vector 117 SingleCell_Standalone.upf.ipv4.ip packetDropForwardingDisabled:vector(packetBytes) ETV
attr interpolationmode none
attr recordingmode vector(packetBytes)
attr source packetDropReasonIsForwardingDisabled(packetDropped)
attr title "packet drop: forwarding disabled, packetBytes"
vector 118 SingleCell_Standalone.upf.ipv4.ip packetDropNoInterfaceFound:vector(packetBytes) ETV
attr interpolationmode none
attr recordingmode vector(packetBytes)
attr source packetDropReasonIsNoInterfaceFound(packetDropped)
attr title "packet drop: no interface found, packetBytes"
vector 119 SingleCell_Standalone.upf.ipv4.ip packetDropNoRouteFound:vector(packetBytes) ETV
attr interpolationmode none
attr recordingmode vector(packetBytes)
attr source packetDropReasonIsNoRouteFound(packetDropped)
attr title "packet drop: no route found, packetBytes"
vector 120 SingleCell_Standalone.upf.ipv4.ip packetDropUndefined:vector(packetBytes) ETV
attr interpolationmode none
attr recordingmode vector(packetBytes)
attr source packetDropReasonIsUndefined(packetDropped)
attr title "packet drop: undefined, packetBytes"
vector 121 SingleCell_Standalone.upf.ipv4.arp arpRequestSent:vector(packetBytes) ETV
attr recordingmode vector(packetBytes)
attr source arpRequestSent
attr title "ARP request sent, packetBytes"
vector 122 SingleCell_Standalone.upf.ipv4.arp arpReplySent:vector(packetBytes) ETV
attr recordingmode vector(packetBytes)
attr source arpReplySent
attr title "ARP replies sent, packetBytes"
vector 123 SingleCell_Standalone.upf.pppIf.queue queueLength:vector ETV
attr autoWarmupFilter false
attr interpolationmode sample-hold
attr recordingmode vector
attr source "warmup(atomic(constant0(packetPushEnded) + count(packetPushStarted) - count(packetPulled) - count(packetRemoved) - count(packetDropped)))"
attr title "queue length"
attr unit pk
vector 124 SingleCell_Standalone.upf.pppIf.queue queueBitLength:vector ETV
attr autoWarmupFilter false
attr interpolationmode sample-hold
attr recordingmode vector
attr source "warmup(atomic(constant0(packetPushEnded) + sum(packetLength(packetPushStarted)) - sum(packetLength(packetPulled)) - sum(packetLength(packetRemoved)) - sum(packetLength(packetDropped))))"
attr title "queue bit length"
attr unit b
vector 125 SingleCell_Standalone.upf.pppIf.queue queueingTime:vector ETV
attr interpolationmode none
attr recordingmode vector
attr source queueingTime(packetPulled)
attr title "queueing times"
attr unit s
vector 126 SingleCell_Standalone.upf.pppIf.queue incomingPacketLengths:vector ETV
attr interpolationmode none
attr recordingmode vector
attr source packetLength(packetPushStarted)
attr title "incoming packet lengths"
attr unit b
vector 127 SingleCell_Standalone.upf.pppIf.queue incomingDataRate:vector ETV
attr interpolationmode linear
attr recordingmode vector
attr source throughput(packetPushStarted)
attr title "incoming datarate"
attr unit bps
vector 128 SingleCell_Standalone.upf.pppIf.queue outgoingPacketLengths:vector ETV
attr interpolationmode none
attr recordingmode vector
attr source packetLength(packetPulled)
attr title "outgoing packet lengths"
attr unit b
vector 129 SingleCell_Standalone.upf.pppIf.queue outgoingDataRate:vector ETV
attr interpolationmode linear
attr recordingmode vector
attr source throughput(packetPulled)
attr title "outgoing datarate"
attr unit bps
vector 130 SingleCell_Standalone.upf.pppIf.queue droppedPacketLengthsQueueOverflow:vector ETV
attr interpolationmode none
attr recordingmode vector
attr source packetLength(packetDropReasonIsQueueOverflow(packetDropped))
attr title "dropped packet lengths: queue overflow"
attr unit b
vector 131 SingleCell_Standalone.upf.pppIf.queue flowQueueingTime:vector ETV
attr interpolationmode none
attr recordingmode vector
attr source queueingTime(demuxFlow(packetPulled))
attr title "flow queueing times"
attr unit s
vector 132 SingleCell_Standalone.upf.pppIf.queue flowIncomingDataRate:vector ETV
attr interpolationmode linear
attr recordingmode vector
attr source throughput(flowPacketLength(demuxFlow(packetPushStarted)))
attr title "flow specific incoming data rate"
attr unit bps
vector 133 SingleCell_Standalone.upf.pppIf.queue flowOutgoingDataRate:vector ETV
attr interpolationmode linear
attr recordingmode vector
attr source throughput(flowPacketLength(demuxFlow(packetPulled)))
attr title "flow specific outgoing data rate"
attr unit bps
vector 134 SingleCell_Standalone.upf.pppIf.ppp transmissionState:vector ETV
attr interpolationmode sample-hold
attr recordingmode vector
attr source transmissionStateChanged
attr title "tx state"
vector 135 SingleCell_Standalone.upf.pppIf.ppp txPk:vector(packetBytes) ETV
attr interpolationmode none
attr recordingmode vector(packetBytes)
attr source packetSentToLower
attr title "packets transmitted, packetBytes"
vector 136 SingleCell_Standalone.upf.pppIf.ppp rxPkOk:vector(packetBytes) ETV
attr interpolationmode none
attr recordingmode vector(packetBytes)
attr source rxPkOk
attr title "packets received OK, packetBytes"
vector 137 SingleCell_Standalone.upf.pppIf.ppp packetDropIncorrectlyReceived:vector(packetBytes) ETV
attr interpolationmode none
attr recordingmode vector(packetBytes)
attr source packetDropReasonIsIncorrectlyReceived(packetDropped)
attr title "packet drop: incorrectly received, packetBytes"
vector 138 SingleCell_Standalone.upf.pppIf.ppp packetDropInterfaceDown:vector(packetBytes) ETV
attr interpolationmode none
attr recordingmode vector(packetBytes)
attr source packetDropReasonIsInterfaceDown(packetDropped)
attr title "packet drop: interface down, packetBytes"
vector 139 SingleCell_Standalone.upf.pppIf.ppp rcvdPkFromHl:vector(packetBytes) ETV
attr interpolationmode none
attr recordingmode vector(packetBytes)
attr source packetReceivedFromUpper
attr title "packets received from higher layer, packetBytes"
vector 140 SingleCell_Standalone.upf.pppIf.ppp passedUpPk:vector(packetBytes) ETV
attr interpolationmode none
attr recordingmode vector(packetBytes)
attr source packetSentToUpper
attr title "packets passed to higher layer, packetBytes"
vector 141 SingleCell_Standalone.upf.pppIf packetDropInterfaceDown:vector(packetBytes) ETV
attr interpolationmode none
attr recordingmode vector(packetBytes)
attr source packetDropReasonIsInterfaceDown(packetDropped)
attr title "packet drops: interface down, packetBytes"
vector 142 SingleCell_Standalone.upf.pppIf packetDropNoCarrier:vector(packetBytes) ETV
attr interpolationmode none
attr recordingmode vector(packetBytes)
attr source packetDropReasonIsNoCarrier(packetDropped)
attr title "packet drops: no carrier, packetBytes"
vector 143 SingleCell_Standalone.upf.udp packetSent:vector(packetBytes) ETV
attr interpolationmode none
attr recordingmode vector(packetBytes)
attr source packetSent
attr title "packets sent, packetBytes"
vector 144 SingleCell_Standalone.upf.udp packetReceived:vector(packetBytes) ETV
attr interpolationmode none
attr recordingmode vector(packetBytes)
attr source packetReceived
attr title "packets received, packetBytes"
vector 145 SingleCell_Standalone.upf.udp passedUpPk:vector(count) ETV
attr interpolationmode none
attr recordingmode vector(count)
attr source packetSentToUpper
attr title "packets passed up, count"
vector 146 SingleCell_Standalone.upf.udp droppedPkWrongPort:vector(count) ETV
attr interpolationmode none
attr recordingmode vector(count)
attr source packetDropReasonIsNoPortFound(packetDropped)
attr title "packets dropped (wrong port), count"
vector 147 SingleCell_Standalone.upf.udp droppedPkBadChecksum:vector(count) ETV
attr interpolationmode none
attr recordingmode vector(count)
attr source packetDropReasonIsIncorrectlyReceived(packetDropped)
attr title "packets dropped (checksum error), count"
vector 148 SingleCell_Standalone.iUpf.lo[0].lo rcvdPkFromHl:vector(packetBytes) ETV
attr interpolationmode none
attr recordingmode vector(packetBytes)
attr source packetReceivedFromUpper
attr title "packets received from higher layer, packetBytes"
vector 149 SingleCell_Standalone.iUpf.lo[0].lo passedUpPk:vector(packetBytes) ETV
attr interpolationmode none
attr recordingmode vector(packetBytes)
attr source packetSentToUpper
attr title "packets passed to higher layer, packetBytes"
vector 150 SingleCell_Standalone.iUpf.lo[0] packetDropInterfaceDown:vector(packetBytes) ETV
attr interpolationmode none
attr recordingmode vector(packetBytes)
attr source packetDropReasonIsInterfaceDown(packetDropped)
attr title "packet drops: interface down, packetBytes"
vector 151 SingleCell_Standalone.iUpf.lo[0] packetDropNoCarrier:vector(packetBytes) ETV
attr interpolationmode none
attr recordingmode vector(packetBytes)
attr source packetDropReasonIsNoCarrier(packetDropped)
attr title "packet drops: no carrier, packetBytes"
vector 152 SingleCell_Standalone.iUpf.ppp[0].queue queueLength:vector ETV
attr autoWarmupFilter false
attr interpolationmode sample-hold
attr recordingmode vector
attr source "warmup(atomic(constant0(packetPushEnded) + count(packetPushStarted) - count(packetPulled) - count(packetRemoved) - count(packetDropped)))"
attr title "queue length"
attr unit pk
vector 153 SingleCell_Standalone.iUpf.ppp[0].queue queueBitLength:vector ETV
attr autoWarmupFilter false
attr interpolationmode sample-hold
attr recordingmode vector
attr source "warmup(atomic(constant0(packetPushEnded) + sum(packetLength(packetPushStarted)) - sum(packetLength(packetPulled)) - sum(packetLength(packetRemoved)) - sum(packetLength(packetDropped))))"
attr title "queue bit length"
attr unit b
vector 154 SingleCell_Standalone.iUpf.ppp[0].queue queueingTime:vector ETV
attr interpolationmode none
attr recordingmode vector
attr source queueingTime(packetPulled)
attr title "queueing times"
attr unit s
vector 155 SingleCell_Standalone.iUpf.ppp[0].queue incomingPacketLengths:vector ETV
attr interpolationmode none
attr recordingmode vector
attr source packetLength(packetPushStarted)
attr title "incoming packet lengths"
attr unit b
vector 156 SingleCell_Standalone.iUpf.ppp[0].queue incomingDataRate:vector ETV
attr interpolationmode linear
attr recordingmode vector
attr source throughput(packetPushStarted)
attr title "incoming datarate"
attr unit bps
vector 157 SingleCell_Standalone.iUpf.ppp[0].queue outgoingPacketLengths:vector ETV
attr interpolationmode none
attr recordingmode vector
attr source packetLength(packetPulled)
attr title "outgoing packet lengths"
attr unit b
vector 158 SingleCell_Standalone.iUpf.ppp[0].queue outgoingDataRate:vector ETV
attr interpolationmode linear
attr recordingmode vector
attr source throughput(packetPulled)
attr title "outgoing datarate"
attr unit bps
vector 159 SingleCell_Standalone.iUpf.ppp[0].queue droppedPacketLengthsQueueOverflow:vector ETV
attr interpolationmode none
attr recordingmode vector
attr source packetLength(packetDropReasonIsQueueOverflow(packetDropped))
attr title "dropped packet lengths: queue overflow"
attr unit b
vector 160 SingleCell_Standalone.iUpf.ppp[0].queue flowQueueingTime:vector ETV
attr interpolationmode none
attr recordingmode vector
attr source queueingTime(demuxFlow(packetPulled))
attr title "flow queueing times"
attr unit s
vector 161 SingleCell_Standalone.iUpf.ppp[0].queue flowIncomingDataRate:vector ETV
attr interpolationmode linear
attr recordingmode vector
attr source throughput(flowPacketLength(demuxFlow(packetPushStarted)))
attr title "flow specific incoming data rate"
attr unit bps
vector 162 SingleCell_Standalone.iUpf.ppp[0].queue flowOutgoingDataRate:vector ETV
attr interpolationmode linear
attr recordingmode vector
attr source throughput(flowPacketLength(demuxFlow(packetPulled)))
attr title "flow specific outgoing data rate"
attr unit bps
vector 163 SingleCell_Standalone.iUpf.ppp[0].ppp transmissionState:vector ETV
attr interpolationmode sample-hold
attr recordingmode vector
attr source transmissionStateChanged
attr title "tx state"
vector 164 SingleCell_Standalone.iUpf.ppp[0].ppp txPk:vector(packetBytes) ETV
attr interpolationmode none
attr recordingmode vector(packetBytes)
attr source packetSentToLower
attr title "packets transmitted, packetBytes"
vector 165 SingleCell_Standalone.iUpf.ppp[0].ppp rxPkOk:vector(packetBytes) ETV
attr interpolationmode none
attr recordingmode vector(packetBytes)
attr source rxPkOk
attr title "packets received OK, packetBytes"
vector 166 SingleCell_Standalone.iUpf.ppp[0].ppp packetDropIncorrectlyReceived:vector(packetBytes) ETV
attr interpolationmode none
attr recordingmode vector(packetBytes)
attr source packetDropReasonIsIncorrectlyReceived(packetDropped)
attr title "packet drop: incorrectly received, packetBytes"
vector 167 SingleCell_Standalone.iUpf.ppp[0].ppp packetDropInterfaceDown:vector(packetBytes) ETV
attr interpolationmode none
attr recordingmode vector(packetBytes)
attr source packetDropReasonIsInterfaceDown(packetDropped)
attr title "packet drop: interface down, packetBytes"
vector 168 SingleCell_Standalone.iUpf.ppp[0].ppp rcvdPkFromHl:vector(packetBytes) ETV
attr interpolationmode none
attr recordingmode vector(packetBytes)
attr source packetReceivedFromUpper
attr title "packets received from higher layer, packetBytes"
vector 169 SingleCell_Standalone.iUpf.ppp[0].ppp passedUpPk:vector(packetBytes) ETV
attr interpolationmode none
attr recordingmode vector(packetBytes)
attr source packetSentToUpper
attr title "packets passed to higher layer, packetBytes"
vector 170 SingleCell_Standalone.iUpf.ppp[0] packetDropInterfaceDown:vector(packetBytes) ETV
attr interpolationmode none
attr recordingmode vector(packetBytes)
attr source packetDropReasonIsInterfaceDown(packetDropped)
attr title "packet drops: interface down, packetBytes"
vector 171 SingleCell_Standalone.iUpf.ppp[0] packetDropNoCarrier:vector(packetBytes) ETV
attr interpolationmode none
attr recordingmode vector(packetBytes)
attr source packetDropReasonIsNoCarrier(packetDropped)
attr title "packet drops: no carrier, packetBytes"
vector 172 SingleCell_Standalone.iUpf.ppp[1].queue queueLength:vector ETV
attr autoWarmupFilter false
attr interpolationmode sample-hold
attr recordingmode vector
attr source "warmup(atomic(constant0(packetPushEnded) + count(packetPushStarted) - count(packetPulled) - count(packetRemoved) - count(packetDropped)))"
attr title "queue length"
attr unit pk
vector 173 SingleCell_Standalone.iUpf.ppp[1].queue queueBitLength:vector ETV
attr autoWarmupFilter false
attr interpolationmode sample-hold
attr recordingmode vector
attr source "warmup(atomic(constant0(packetPushEnded) + sum(packetLength(packetPushStarted)) - sum(packetLength(packetPulled)) - sum(packetLength(packetRemoved)) - sum(packetLength(packetDropped))))"
attr title "queue bit length"
attr unit b
vector 174 SingleCell_Standalone.iUpf.ppp[1].queue queueingTime:vector ETV
attr interpolationmode none
attr recordingmode vector
attr source queueingTime(packetPulled)
attr title "queueing times"
attr unit s
vector 175 SingleCell_Standalone.iUpf.ppp[1].queue incomingPacketLengths:vector ETV
attr interpolationmode none
attr recordingmode vector
attr source packetLength(packetPushStarted)
attr title "incoming packet lengths"
attr unit b
vector 176 SingleCell_Standalone.iUpf.ppp[1].queue incomingDataRate:vector ETV
attr interpolationmode linear
attr recordingmode vector
attr source throughput(packetPushStarted)
attr title "incoming datarate"
attr unit bps
vector 177 SingleCell_Standalone.iUpf.ppp[1].queue outgoingPacketLengths:vector ETV
attr interpolationmode none
attr recordingmode vector
attr source packetLength(packetPulled)
attr title "outgoing packet lengths"
attr unit b
vector 178 SingleCell_Standalone.iUpf.ppp[1].queue outgoingDataRate:vector ETV
attr interpolationmode linear
attr recordingmode vector
attr source throughput(packetPulled)
attr title "outgoing datarate"
attr unit bps
vector 179 SingleCell_Standalone.iUpf.ppp[1].queue droppedPacketLengthsQueueOverflow:vector ETV
attr interpolationmode none
attr recordingmode vector
attr source packetLength(packetDropReasonIsQueueOverflow(packetDropped))
attr title "dropped packet lengths: queue overflow"
attr unit b
vector 180 SingleCell_Standalone.iUpf.ppp[1].queue flowQueueingTime:vector ETV
attr interpolationmode none
attr recordingmode vector
attr source queueingTime(demuxFlow(packetPulled))
attr title "flow queueing times"
attr unit s
vector 181 SingleCell_Standalone.iUpf.ppp[1].queue flowIncomingDataRate:vector ETV
attr interpolationmode linear
attr recordingmode vector
attr source throughput(flowPacketLength(demuxFlow(packetPushStarted)))
attr title "flow specific incoming data rate"
attr unit bps
vector 182 SingleCell_Standalone.iUpf.ppp[1].queue flowOutgoingDataRate:vector ETV
attr interpolationmode linear
attr recordingmode vector
attr source throughput(flowPacketLength(demuxFlow(packetPulled)))
attr title "flow specific outgoing data rate"
attr unit bps
vector 183 SingleCell_Standalone.iUpf.ppp[1].ppp transmissionState:vector ETV
attr interpolationmode sample-hold
[...]
attr source distance
attr title "distance between UE and serving base station"
attr unit meters
vector 771 SingleCell_Standalone.ue[0].cellularNic.phy servingCell:vector ETV
attr recordingmode vector
attr source servingCell
attr title "ID of the serving cell for the UE"
attr unit ""
vector 772 SingleCell_Standalone.ue[0].cellularNic.phy averageCqiDl:vector ETV
attr recordingmode vector
attr source averageCqiDl
attr title "Average Cqi reported in DL"
attr unit cqi
vector 773 SingleCell_Standalone.ue[0].cellularNic.phy averageCqiUl:vector ETV
attr recordingmode vector
attr source averageCqiUl
attr title "Average Cqi reported in UL"
attr unit cqi
vector 774 SingleCell_Standalone.ue[0].cellularNic.phy averageCqiD2D:vector ETV
attr recordingmode vector
attr source averageCqiD2D
attr title "Average Cqi reported in D2D"
attr unit cqi
vector 775 SingleCell_Standalone.ue[0].cellularNic.channelModel[0] rcvdSinrDl:vector ETV
attr recordingmode vector
attr source rcvdSinrDl
attr title "SINR measured at packet reception, DL"
attr unit dB
vector 776 SingleCell_Standalone.ue[0].cellularNic.channelModel[0] rcvdSinrUl:vector ETV
attr recordingmode vector
attr source rcvdSinrUl
attr title "SINR measured at packet reception, UL"
attr unit dB
vector 777 SingleCell_Standalone.ue[0].cellularNic.channelModel[0] rcvdSinrD2D:vector ETV
attr recordingmode vector
attr source rcvdSinrD2D
attr title "SINR measured at packet reception, D2D"
attr unit dB
vector 778 SingleCell_Standalone.ue[0].cellularNic.channelModel[0] measuredSinrDl:vector ETV
attr recordingmode vector
attr source measuredSinrDl
attr title "SINR measured at feedback computation, DL"
attr unit dB
vector 779 SingleCell_Standalone.ue[0].cellularNic.channelModel[0] measuredSinrUl:vector ETV
attr recordingmode vector
attr source measuredSinrUl
attr title "SINR measured at feedback computation, UL"
attr unit dB
vector 780 SingleCell_Standalone.ue[0].cellularNic.nrRlc.tm rlcPacketLossUl:vector ETV
attr recordingmode vector
attr source rlcPacketLossUl
attr title "rlc Packet Loss"
attr unit ""
vector 781 SingleCell_Standalone.ue[0].cellularNic.nrRlc.tm rlcPacketLossDl:vector ETV
attr recordingmode vector
attr source rlcPacketLossDl
attr title "rlc Packet Loss"
attr unit ""
vector 782 SingleCell_Standalone.ue[0].cellularNic.nrRlc.tm receivedPacketFromUpperLayer:vector(packetBytes) ETV
attr interpolationmode none
attr recordingmode vector(packetBytes)
attr source receivedPacketFromUpperLayer
vector 783 SingleCell_Standalone.ue[0].cellularNic.nrRlc.tm receivedPacketFromLowerLayer:vector(packetBytes) ETV
attr interpolationmode none
attr recordingmode vector(packetBytes)
attr source receivedPacketFromLowerLayer
vector 784 SingleCell_Standalone.ue[0].cellularNic.nrRlc.tm sentPacketToUpperLayer:vector(packetBytes) ETV
attr interpolationmode none
attr recordingmode vector(packetBytes)
attr source sentPacketToUpperLayer
vector 785 SingleCell_Standalone.ue[0].cellularNic.nrRlc.tm sentPacketToLowerLayer:vector(packetBytes) ETV
attr interpolationmode none
attr recordingmode vector(packetBytes)
attr source sentPacketToLowerLayer
vector 786 SingleCell_Standalone.ue[0].cellularNic.nrRlc.um rlcDelayDl:vector ETV
attr recordingmode vector
attr source rlcDelayDl
attr title "Delay at the rlc layer DL"
attr unit s
vector 787 SingleCell_Standalone.ue[0].cellularNic.nrRlc.um rlcThroughputDl:vector ETV
attr recordingmode vector
attr source rlcThroughputDl
attr title "Throughput at the rlc layer DL"
attr unit Bps
vector 788 SingleCell_Standalone.ue[0].cellularNic.nrRlc.um rlcDelayUl:vector ETV
attr recordingmode vector
attr source rlcDelayUl
attr title "Delay at the rlc layer UL"
attr unit s
vector 789 SingleCell_Standalone.ue[0].cellularNic.nrRlc.um rlcThroughputUl:vector ETV
attr recordingmode vector
attr source rlcThroughputUl
attr title "Throughput at the rlc layer UL"
attr unit Bps
vector 790 SingleCell_Standalone.ue[0].cellularNic.nrRlc.um rlcPacketLossUl:vector ETV
attr recordingmode vector
attr source rlcPacketLossUl
attr title "rlc Packet Loss"
attr unit ""
vector 791 SingleCell_Standalone.ue[0].cellularNic.nrRlc.um rlcPacketLossDl:vector ETV
attr recordingmode vector
attr source rlcPacketLossDl
attr title "rlc Packet Loss"
attr unit ""
vector 792 SingleCell_Standalone.ue[0].cellularNic.nrRlc.um rlcPacketLossTotal:vector ETV
attr recordingmode vector
attr source rlcPacketLossTotal
attr title "rlc Packet Loss"
attr unit ""
vector 793 SingleCell_Standalone.ue[0].cellularNic.nrRlc.um rlcPduDelayDl:vector ETV
attr recordingmode vector
attr source rlcPduDelayDl
attr title "Delay at the rlc layer UL"
attr unit s
vector 794 SingleCell_Standalone.ue[0].cellularNic.nrRlc.um rlcPduThroughputDl:vector ETV
attr recordingmode vector
attr source rlcPduThroughputDl
attr title "Throughput at the rlc layer DL"
attr unit Bps
vector 795 SingleCell_Standalone.ue[0].cellularNic.nrRlc.um rlcPduDelayUl:vector ETV
attr recordingmode vector
attr source rlcPduDelayUl
attr title "Delay at the rlc layer UL"
attr unit s
vector 796 SingleCell_Standalone.ue[0].cellularNic.nrRlc.um rlcPduThroughputUl:vector ETV
attr recordingmode vector
attr source rlcPduThroughputUl
attr title "Throughput at the rlc layer UL"
attr unit Bps
vector 797 SingleCell_Standalone.ue[0].cellularNic.nrRlc.um rlcPduPacketLossUl:vector ETV
attr recordingmode vector
attr source rlcPduPacketLossUl
attr title "rlc Packet Loss"
attr unit ""
vector 798 SingleCell_Standalone.ue[0].cellularNic.nrRlc.um rlcPduPacketLossDl:vector ETV
attr recordingmode vector
attr source rlcPduPacketLossDl
attr title "rlc Packet Loss"
attr unit ""
vector 799 SingleCell_Standalone.ue[0].cellularNic.nrRlc.um receivedPacketFromUpperLayer:vector(packetBytes) ETV
attr interpolationmode none
attr recordingmode vector(packetBytes)
attr source receivedPacketFromUpperLayer
vector 800 SingleCell_Standalone.ue[0].cellularNic.nrRlc.um receivedPacketFromLowerLayer:vector(packetBytes) ETV
attr interpolationmode none
attr recordingmode vector(packetBytes)
attr source receivedPacketFromLowerLayer
vector 801 SingleCell_Standalone.ue[0].cellularNic.nrRlc.um sentPacketToUpperLayer:vector(packetBytes) ETV
attr interpolationmode none
attr recordingmode vector(packetBytes)
attr source sentPacketToUpperLayer
vector 802 SingleCell_Standalone.ue[0].cellularNic.nrRlc.um sentPacketToLowerLayer:vector(packetBytes) ETV
attr interpolationmode none
attr recordingmode vector(packetBytes)
attr source sentPacketToLowerLayer
vector 803 SingleCell_Standalone.ue[0].cellularNic.nrRlc.um rlcDelayD2D:vector ETV
attr recordingmode vector
attr source rlcDelayD2D
attr title "Delay at the rlc layer D2D"
attr unit s
vector 804 SingleCell_Standalone.ue[0].cellularNic.nrRlc.um rlcThroughputD2D:vector ETV
attr recordingmode vector
attr source rlcThroughputD2D
attr title "Throughput at the rlc layer D2D"
attr unit Bps
vector 805 SingleCell_Standalone.ue[0].cellularNic.nrRlc.um rlcPacketLossD2D:vector ETV
attr recordingmode vector
attr source rlcPacketLossD2D
attr title "rlc Packet Loss"
attr unit ""
vector 806 SingleCell_Standalone.ue[0].cellularNic.nrRlc.um rlcCellPacketLossD2D:vector ETV
attr recordingmode vector
attr source rlcCellPacketLossD2D
attr title "rlc Cell Packet Loss"
attr unit ""
vector 807 SingleCell_Standalone.ue[0].cellularNic.nrRlc.um rlcCellThroughputD2D:vector ETV
attr recordingmode vector
attr source rlcCellThroughputD2D
attr title "Cell Throughput at the rlc layer D2D"
attr unit Bps
vector 808 SingleCell_Standalone.ue[0].cellularNic.nrRlc.um rlcPduDelayD2D:vector ETV
attr recordingmode vector
attr source rlcPduDelayD2D
attr title "Delay at the rlc layer D2D"
attr unit s
vector 809 SingleCell_Standalone.ue[0].cellularNic.nrRlc.um rlcPduThroughputD2D:vector ETV
attr recordingmode vector
attr source rlcPduThroughputD2D
attr title "Throughput at the rlc layer D2D"
attr unit Bps
vector 810 SingleCell_Standalone.ue[0].cellularNic.nrRlc.um rlcPduPacketLossD2D:vector ETV
attr recordingmode vector
attr source rlcPduPacketLossD2D
attr title "rlc Packet Loss"
attr unit ""
vector 811 SingleCell_Standalone.ue[0].cellularNic.nrMac macDelayDl:vector ETV
attr recordingmode vector
attr source macDelayDl
attr title "Delay at the MAC layer UL"
attr unit s
vector 812 SingleCell_Standalone.ue[0].cellularNic.nrMac macDelayUl:vector ETV
attr recordingmode vector
attr source macDelayUl
attr title "Delay at the MAC layer UL"
attr unit s
vector 813 SingleCell_Standalone.ue[0].cellularNic.nrMac harqErrorRateUl:vector ETV
attr recordingmode vector
attr source harqErrorRateUl
attr title "Harq Error Rate Ul"
attr unit ""
vector 814 SingleCell_Standalone.ue[0].cellularNic.nrMac harqErrorRateDl:vector ETV
attr recordingmode vector
attr source harqErrorRateDl
attr title "Harq Error Rate Dl"
attr unit ""
vector 815 SingleCell_Standalone.ue[0].cellularNic.nrMac harqTxAttemptsDl:vector ETV
attr recordingmode vector
attr source harqTxAttemptsDl
attr title "Harq Tx Attempts Dl"
attr unit ""
vector 816 SingleCell_Standalone.ue[0].cellularNic.nrMac harqTxAttemptsUl:vector ETV
attr recordingmode vector
attr source harqTxAttemptsUl
attr title "Harq Tx Attempts Ul"
attr unit ""
vector 817 SingleCell_Standalone.ue[0].cellularNic.nrMac harqErrorRate_1st_Ul:vector ETV
attr recordingmode vector
attr source harqErrorRate_1st_Ul
attr title "Harq Error Rate Ul (1st tx)"
attr unit ""
vector 818 SingleCell_Standalone.ue[0].cellularNic.nrMac harqErrorRate_1st_Dl:vector ETV
attr recordingmode vector
attr source harqErrorRate_1st_Dl
attr title "Harq Error Rate Dl (1st tx)"
attr unit ""
vector 819 SingleCell_Standalone.ue[0].cellularNic.nrMac harqErrorRate_2nd_Ul:vector ETV
attr recordingmode vector
attr source harqErrorRate_2nd_Ul
attr title "Harq Error Rate Ul (2nd tx)"
attr unit ""
vector 820 SingleCell_Standalone.ue[0].cellularNic.nrMac harqErrorRate_2nd_Dl:vector ETV
attr recordingmode vector
attr source harqErrorRate_2nd_Dl
attr title "Harq Error Rate Dl (2nd tx)"
attr unit ""
vector 821 SingleCell_Standalone.ue[0].cellularNic.nrMac harqErrorRate_3rd_Ul:vector ETV
attr recordingmode vector
attr source harqErrorRate_3rd_Ul
attr title "Harq Error Rate Ul (3rd tx)"
attr unit ""
vector 822 SingleCell_Standalone.ue[0].cellularNic.nrMac harqErrorRate_3rd_Dl:vector ETV
attr recordingmode vector
attr source harqErrorRate_3rd_Dl
attr title "Harq Error Rate Dl (3rd tx)"
attr unit ""
vector 823 SingleCell_Standalone.ue[0].cellularNic.nrMac harqErrorRate_4th_Ul:vector ETV
attr recordingmode vector
attr source harqErrorRate_4th_Ul
attr title "Harq Error Rate Ul (4th tx)"
attr unit ""
vector 824 SingleCell_Standalone.ue[0].cellularNic.nrMac harqErrorRate_4th_Dl:vector ETV
attr recordingmode vector
attr source harqErrorRate_4th_Dl
attr title "Harq Error Rate Dl (4th tx)"
attr unit ""
vector 825 SingleCell_Standalone.ue[0].cellularNic.nrMac receivedPacketFromUpperLayer:vector(packetBytes) ETV
attr interpolationmode none
attr recordingmode vector(packetBytes)
attr source receivedPacketFromUpperLayer
vector 826 SingleCell_Standalone.ue[0].cellularNic.nrMac receivedPacketFromLowerLayer:vector(packetBytes) ETV
attr interpolationmode none
attr recordingmode vector(packetBytes)
attr source receivedPacketFromLowerLayer
vector 827 SingleCell_Standalone.ue[0].cellularNic.nrMac sentPacketToUpperLayer:vector(packetBytes) ETV
attr interpolationmode none
attr recordingmode vector(packetBytes)
attr source sentPacketToUpperLayer
vector 828 SingleCell_Standalone.ue[0].cellularNic.nrMac sentPacketToLowerLayer:vector(packetBytes) ETV
attr interpolationmode none
attr recordingmode vector(packetBytes)
attr source sentPacketToLowerLayer
vector 829 SingleCell_Standalone.ue[0].cellularNic.nrMac harqErrorRate_1st_D2D:vector ETV
attr recordingmode vector
attr source harqErrorRate_1st_D2D
attr title "Harq Error Rate D2D (1st Tx)"
attr unit ""
vector 830 SingleCell_Standalone.ue[0].cellularNic.nrMac harqErrorRate_2nd_D2D:vector ETV
attr recordingmode vector
attr source harqErrorRate_2nd_D2D
attr title "Harq Error Rate D2D (2nd Tx)"
attr unit ""
vector 831 SingleCell_Standalone.ue[0].cellularNic.nrMac harqErrorRate_3rd_D2D:vector ETV
attr recordingmode vector
attr source harqErrorRate_3rd_D2D
attr title "Harq Error Rate D2D (3rd Tx)"
attr unit ""
vector 832 SingleCell_Standalone.ue[0].cellularNic.nrMac harqErrorRate_4th_D2D:vector ETV
attr recordingmode vector
attr source harqErrorRate_4th_D2D
attr title "Harq Error Rate D2D (4th Tx)"
attr unit ""
vector 833 SingleCell_Standalone.ue[0].cellularNic.nrMac harqErrorRateD2D:vector ETV
attr recordingmode vector
attr source harqErrorRateD2D
attr title "Harq Error Rate D2D"
attr unit ""
vector 834 SingleCell_Standalone.ue[0].cellularNic.nrMac macDelayD2D:vector ETV
attr recordingmode vector
attr source macDelayD2D
attr title "Delay at the MAC layer D2D"
attr unit s
vector 835 SingleCell_Standalone.ue[0].cellularNic.nrMac rcvdD2DModeSwitchNotification:vector ETV
attr recordingmode vector
attr source rcvdD2DModeSwitchNotification
attr title "Reception of mode switch notification (tx side)"
attr unit ""
vector 836 SingleCell_Standalone.ue[0].cellularNic.nrPhy distance:vector ETV
attr recordingmode vector
attr source distance
attr title "distance between UE and serving base station"
attr unit meters
vector 837 SingleCell_Standalone.ue[0].cellularNic.nrPhy servingCell:vector ETV
attr recordingmode vector
attr source servingCell
attr title "ID of the serving cell for the UE"
attr unit ""
vector 838 SingleCell_Standalone.ue[0].cellularNic.nrPhy averageCqiDl:vector ETV
attr recordingmode vector
attr source averageCqiDl
attr title "Average Cqi reported in DL"
attr unit cqi
vector 839 SingleCell_Standalone.ue[0].cellularNic.nrPhy averageCqiUl:vector ETV
attr recordingmode vector
attr source averageCqiUl
attr title "Average Cqi reported in UL"
attr unit cqi
vector 840 SingleCell_Standalone.ue[0].cellularNic.nrPhy averageCqiD2D:vector ETV
attr recordingmode vector
attr source averageCqiD2D
attr title "Average Cqi reported in D2D"
attr unit cqi
vector 841 SingleCell_Standalone.ue[0].cellularNic.nrChannelModel[0] rcvdSinrDl:vector ETV
attr recordingmode vector
attr source rcvdSinrDl
attr title "SINR measured at packet reception, DL"
attr unit dB
vector 842 SingleCell_Standalone.ue[0].cellularNic.nrChannelModel[0] rcvdSinrUl:vector ETV
attr recordingmode vector
attr source rcvdSinrUl
attr title "SINR measured at packet reception, UL"
attr unit dB
vector 843 SingleCell_Standalone.ue[0].cellularNic.nrChannelModel[0] rcvdSinrD2D:vector ETV
attr recordingmode vector
attr source rcvdSinrD2D
attr title "SINR measured at packet reception, D2D"
attr unit dB
vector 844 SingleCell_Standalone.ue[0].cellularNic.nrChannelModel[0] measuredSinrDl:vector ETV
attr recordingmode vector
attr source measuredSinrDl
attr title "SINR measured at feedback computation, DL"
attr unit dB
vector 845 SingleCell_Standalone.ue[0].cellularNic.nrChannelModel[0] measuredSinrUl:vector ETV
attr recordingmode vector
attr source measuredSinrUl
attr title "SINR measured at feedback computation, UL"
attr unit dB
vector 846 SingleCell_Standalone.ue[0].cellularNic packetDropInterfaceDown:vector(packetBytes) ETV
attr interpolationmode none
attr recordingmode vector(packetBytes)
attr source packetDropReasonIsInterfaceDown(packetDropped)
attr title "packet drops: interface down, packetBytes"
vector 847 SingleCell_Standalone.ue[0].cellularNic packetDropNoCarrier:vector(packetBytes) ETV
attr interpolationmode none
attr recordingmode vector(packetBytes)
attr source packetDropReasonIsNoCarrier(packetDropped)
attr title "packet drops: no carrier, packetBytes"
vector 848 SingleCell_Standalone.ue[0].encap encapPk:vector(packetBytes) ETV
attr interpolationmode none
attr recordingmode vector(packetBytes)
attr source encapPk
attr title "packets encapsulated, packetBytes"
vector 849 SingleCell_Standalone.ue[0].encap decapPk:vector(packetBytes) ETV
attr interpolationmode none
attr recordingmode vector(packetBytes)
attr source decapPk
attr title "packets decapsulated, packetBytes"
vector 850 SingleCell_Standalone.ue[0].encap pauseSent:vector ETV
attr recordingmode vector
attr title "pause sent"
vector 851 SingleCell_Standalone.ue[0].ipv4.ip packetDropAddressResolutionFailed:vector(packetBytes) ETV
attr interpolationmode none
attr recordingmode vector(packetBytes)
attr source packetDropReasonIsAddressResolutionFailed(packetDropped)
attr title "packet drop: address resolution failed, packetBytes"
vector 852 SingleCell_Standalone.ue[0].ipv4.ip packetDropHopLimitReached:vector(packetBytes) ETV
attr interpolationmode none
attr recordingmode vector(packetBytes)
attr source packetDropReasonIsHopLimitReached(packetDropped)
attr title "packet drop: hop limit reached, packetBytes"
vector 853 SingleCell_Standalone.ue[0].ipv4.ip packetDropForwardingDisabled:vector(packetBytes) ETV
attr interpolationmode none
attr recordingmode vector(packetBytes)
attr source packetDropReasonIsForwardingDisabled(packetDropped)
attr title "packet drop: forwarding disabled, packetBytes"
vector 854 SingleCell_Standalone.ue[0].ipv4.ip packetDropNoInterfaceFound:vector(packetBytes) ETV
attr interpolationmode none
attr recordingmode vector(packetBytes)
attr source packetDropReasonIsNoInterfaceFound(packetDropped)
attr title "packet drop: no interface found, packetBytes"
vector 855 SingleCell_Standalone.ue[0].ipv4.ip packetDropNoRouteFound:vector(packetBytes) ETV
attr interpolationmode none
attr recordingmode vector(packetBytes)
attr source packetDropReasonIsNoRouteFound(packetDropped)
attr title "packet drop: no route found, packetBytes"
vector 856 SingleCell_Standalone.ue[0].ipv4.ip packetDropUndefined:vector(packetBytes) ETV
attr interpolationmode none
attr recordingmode vector(packetBytes)
attr source packetDropReasonIsUndefined(packetDropped)
attr title "packet drop: undefined, packetBytes"
vector 857 SingleCell_Standalone.ue[0].ipv4.arp arpRequestSent:vector(packetBytes) ETV
attr recordingmode vector(packetBytes)
attr source arpRequestSent
attr title "ARP request sent, packetBytes"
vector 858 SingleCell_Standalone.ue[0].ipv4.arp arpReplySent:vector(packetBytes) ETV
attr recordingmode vector(packetBytes)
attr source arpReplySent
attr title "ARP replies sent, packetBytes"
vector 859 SingleCell_Standalone.ue[0].udp packetSent:vector(packetBytes) ETV
attr interpolationmode none
attr recordingmode vector(packetBytes)
attr source packetSent
attr title "packets sent, packetBytes"
vector 860 SingleCell_Standalone.ue[0].udp packetReceived:vector(packetBytes) ETV
attr interpolationmode none
attr recordingmode vector(packetBytes)
attr source packetReceived
attr title "packets received, packetBytes"
vector 861 SingleCell_Standalone.ue[0].udp passedUpPk:vector(count) ETV
attr interpolationmode none
attr recordingmode vector(count)
attr source packetSentToUpper
attr title "packets passed up, count"
vector 862 SingleCell_Standalone.ue[0].udp droppedPkWrongPort:vector(count) ETV
attr interpolationmode none
attr recordingmode vector(count)
attr source packetDropReasonIsNoPortFound(packetDropped)
attr title "packets dropped (wrong port), count"
vector 863 SingleCell_Standalone.ue[0].udp droppedPkBadChecksum:vector(count) ETV
attr interpolationmode none
attr recordingmode vector(count)
attr source packetDropReasonIsIncorrectlyReceived(packetDropped)
attr title "packets dropped (checksum error), count"
vector 864 SingleCell_Standalone.ue[0].app[0] cbrFrameDelay:vector ETV
attr recordingmode vector
attr source cbrFrameDelay
attr title "Cbr Frame Delay"
attr unit s
vector 865 SingleCell_Standalone.ue[0].app[0] cbrJitter:vector ETV
attr recordingmode vector
attr source cbrJitter
attr title "Cbr Playout Loss"
attr unit s
vector 866 SingleCell_Standalone.ue[0].app[0] cbrReceivedBytes:vector ETV
attr recordingmode vector
attr source cbrReceivedBytes
attr title "Bytes received at the application level"
attr unit Bps
vector 867 SingleCell_Standalone.ue[0].app[0] cbrRcvdPkt:vector ETV
attr recordingmode vector
attr source cbrRcvdPkt
attr title "Received packet ID"
attr unit ""

