version 3
run General-0-20251122-00:33:09-295930
attr configname General
attr datetime 20251122-00:33:09
attr datetimef 20251122-003309
attr experiment General
attr inifile omnetpp.ini
attr iterationvars ""
attr iterationvarsd ""
attr iterationvarsf ""
attr measurement ""
attr network Scenario
attr processid 295930
attr repetition 0
attr replication #0
attr resultdir results
attr runnumber 0
attr seedset 0
config image-path ../../../images
config network Scenario
config sim-time-limit 60min
config *.hosts 3
config **.constraintAreaMinX 0m
config **.constraintAreaMinY 0m
config **.constraintAreaMinZ 0m
config **.constraintAreaMaxX 600m
config **.constraintAreaMaxY 400m
config **.constraintAreaMaxZ 0m
config **.host*.ipv4.configurator.typename HostAutoConfigurator
config **.host*.ipv4.configurator.interfaces "\"wlan0\""
config **.host*.mobility.typename MassMobility
config **.host*.mobility.initFromDisplayString false
config **.host*.mobility.changeInterval "truncnormal(2s, 0.5s)"
config **.host*.mobility.angleDelta "normal(0deg, 30deg)"
config **.host*.mobility.speed "truncnormal(20mps, 8mps)"
config **.host*.mobility.updateInterval 100ms
config **.host*.numApps 1
config **.app[0].typename UdpBasicApp
config **.app[0].destAddresses "\"host[0]\""
config **.app[0].localPort 9001
config **.app[0].destPort 9001
config **.app[0].messageLength 100B
config **.app[0].startTime "uniform(10s, 30s)"
config **.app[0].sendInterval "uniform(10s, 30s)"
config **.wlan[*].bitrate 2Mbps
config **.wlan[*].mac.dcf.channelAccess.cwMin 7
config **.wlan[*].radio.transmitter.power 2mW
config **.wlan[*].radio.receiver.sensitivity -85dBm
config **.wlan[*].radio.receiver.snirThreshold 4dB
config **.udpapp.*.vector-recording true
config **.vector-recording true

par Scenario.visualizer.sceneVisualizer typename "\"inet.visualizer.canvas.scene.SceneCanvasVisualizer\""
par Scenario.visualizer.sceneVisualizer visualizationTargetModule "\"^.^\""
par Scenario.visualizer.sceneVisualizer visualizationSubjectModule "\"^.^\""
par Scenario.visualizer.sceneVisualizer tags "\"\""
par Scenario.visualizer.sceneVisualizer physicalEnvironmentModule "\"physicalEnvironment\""
par Scenario.visualizer.sceneVisualizer networkNodeVisualizerModule "\"^.networkNodeVisualizer\""
par Scenario.visualizer.sceneVisualizer axisLength "nan m"
attr mutable ""
attr unit m
par Scenario.visualizer.sceneVisualizer animationSpeed 0
par Scenario.visualizer.sceneVisualizer sceneMinX "nan m"
attr unit m
par Scenario.visualizer.sceneVisualizer sceneMinY "nan m"
attr unit m
par Scenario.visualizer.sceneVisualizer sceneMinZ "nan m"
attr unit m
par Scenario.visualizer.sceneVisualizer sceneMaxX "nan m"
attr unit m
par Scenario.visualizer.sceneVisualizer sceneMaxY "nan m"
attr unit m
par Scenario.visualizer.sceneVisualizer sceneMaxZ "nan m"
attr unit m
par Scenario.visualizer.sceneVisualizer zIndex 0
par Scenario.visualizer.sceneVisualizer viewAngle "\"x right y down z out\""
attr mutable ""
par Scenario.visualizer.sceneVisualizer viewScale "\"1 1\""
attr mutable ""
par Scenario.visualizer.sceneVisualizer viewTranslation "\"0 0\""
attr mutable ""
par Scenario.visualizer.sceneVisualizer descriptionFigure "\"\""
par Scenario.visualizer.physicalEnvironmentVisualizer typename "\"inet.visualizer.canvas.environment.PhysicalEnvironmentCanvasVisualizer\""
par Scenario.visualizer.physicalEnvironmentVisualizer visualizationTargetModule "\"^.^\""
par Scenario.visualizer.physicalEnvironmentVisualizer visualizationSubjectModule "\"^.^\""
par Scenario.visualizer.physicalEnvironmentVisualizer tags "\"\""
par Scenario.visualizer.physicalEnvironmentVisualizer physicalEnvironmentModule "\"physicalEnvironment\""
par Scenario.visualizer.physicalEnvironmentVisualizer displayObjects true
par Scenario.visualizer.physicalEnvironmentVisualizer zIndex 0
par Scenario.visualizer.networkNodeVisualizer typename "\"inet.visualizer.canvas.scene.NetworkNodeCanvasVisualizer\""
par Scenario.visualizer.networkNodeVisualizer visualizationTargetModule "\"^.^\""
par Scenario.visualizer.networkNodeVisualizer visualizationSubjectModule "\"^.^\""
par Scenario.visualizer.networkNodeVisualizer tags "\"\""
par Scenario.visualizer.networkNodeVisualizer nodeFilter "\"*\""
attr mutable ""
par Scenario.visualizer.networkNodeVisualizer annotationSpacing 4
par Scenario.visualizer.networkNodeVisualizer placementPenalty 10
par Scenario.visualizer.networkNodeVisualizer zIndex 0
par Scenario.visualizer.networkConnectionVisualizer typename "\"inet.visualizer.canvas.scene.NetworkConnectionCanvasVisualizer\""
par Scenario.visualizer.networkConnectionVisualizer visualizationTargetModule "\"^.^\""
par Scenario.visualizer.networkConnectionVisualizer visualizationSubjectModule "\"^.^\""
par Scenario.visualizer.networkConnectionVisualizer tags "\"\""
par Scenario.visualizer.networkConnectionVisualizer displayNetworkConnections true
par Scenario.visualizer.networkConnectionVisualizer nodeFilter "\"\""
attr mutable ""
par Scenario.visualizer.networkConnectionVisualizer lineColor "\"black\""
par Scenario.visualizer.networkConnectionVisualizer lineStyle "\"solid\""
par Scenario.visualizer.networkConnectionVisualizer lineWidth 1
par Scenario.visualizer.networkConnectionVisualizer zIndex 0
par Scenario.visualizer.mobilityVisualizer typename "\"inet.visualizer.canvas.mobility.MobilityCanvasVisualizer\""
par Scenario.visualizer.mobilityVisualizer visualizationTargetModule "\"^.^\""
par Scenario.visualizer.mobilityVisualizer visualizationSubjectModule "\"^.^\""
par Scenario.visualizer.mobilityVisualizer tags "\"\""
par Scenario.visualizer.mobilityVisualizer networkNodeVisualizerModule "\"^.networkNodeVisualizer\""
par Scenario.visualizer.mobilityVisualizer displayMobility true
par Scenario.visualizer.mobilityVisualizer animationSpeed 0
par Scenario.visualizer.mobilityVisualizer moduleFilter "\"**.mobility\""
attr mutable ""
par Scenario.visualizer.mobilityVisualizer displayPositions false
par Scenario.visualizer.mobilityVisualizer positionCircleRadius 4
par Scenario.visualizer.mobilityVisualizer positionCircleLineWidth 1
par Scenario.visualizer.mobilityVisualizer positionCircleLineColor "\"dark\""
par Scenario.visualizer.mobilityVisualizer positionCircleFillColor "\"dark\""
par Scenario.visualizer.mobilityVisualizer displayOrientations false
par Scenario.visualizer.mobilityVisualizer orientationPieRadius 32
par Scenario.visualizer.mobilityVisualizer orientationPieSize 0.2
par Scenario.visualizer.mobilityVisualizer orientationPieOpacity 0.25
par Scenario.visualizer.mobilityVisualizer orientationLineColor "\"black\""
par Scenario.visualizer.mobilityVisualizer orientationLineStyle "\"solid\""
par Scenario.visualizer.mobilityVisualizer orientationLineWidth 1
par Scenario.visualizer.mobilityVisualizer orientationFillColor "\"blue\""
par Scenario.visualizer.mobilityVisualizer displayVelocities false
par Scenario.visualizer.mobilityVisualizer velocityArrowScale 1
par Scenario.visualizer.mobilityVisualizer velocityLineColor "\"black\""
par Scenario.visualizer.mobilityVisualizer velocityLineStyle "\"solid\""
par Scenario.visualizer.mobilityVisualizer velocityLineWidth 1
par Scenario.visualizer.mobilityVisualizer displayMovementTrails false
par Scenario.visualizer.mobilityVisualizer movementTrailLineColor "\"dark\""
par Scenario.visualizer.mobilityVisualizer movementTrailLineStyle "\"solid\""
par Scenario.visualizer.mobilityVisualizer movementTrailLineWidth 1
par Scenario.visualizer.mobilityVisualizer trailLength 100
par Scenario.visualizer.mobilityVisualizer zIndex 0
par Scenario.visualizer.statisticVisualizer typename "\"inet.visualizer.canvas.common.StatisticCanvasVisualizer\""
par Scenario.visualizer.statisticVisualizer visualizationTargetModule "\"^.^\""
par Scenario.visualizer.statisticVisualizer visualizationSubjectModule "\"^.^\""
par Scenario.visualizer.statisticVisualizer tags "\"\""
par Scenario.visualizer.statisticVisualizer networkNodeVisualizerModule "\"^.networkNodeVisualizer\""
par Scenario.visualizer.statisticVisualizer displayStatistics true
par Scenario.visualizer.statisticVisualizer signalName "\"\""
par Scenario.visualizer.statisticVisualizer statisticName "\"\""
par Scenario.visualizer.statisticVisualizer statisticUnit "\"\""
par Scenario.visualizer.statisticVisualizer statisticExpression "\"\""
par Scenario.visualizer.statisticVisualizer sourceFilter "\"**\""
attr mutable ""
par Scenario.visualizer.statisticVisualizer format "\"%n: %v %u\""
attr mutable ""
par Scenario.visualizer.statisticVisualizer unit "\"\""
par Scenario.visualizer.statisticVisualizer font "\"<default>\""
par Scenario.visualizer.statisticVisualizer textColor "\"black\""
par Scenario.visualizer.statisticVisualizer backgroundColor "\"white\""
par Scenario.visualizer.statisticVisualizer opacity 1
par Scenario.visualizer.statisticVisualizer placementHint "\"top\""
par Scenario.visualizer.statisticVisualizer placementPriority 0
par Scenario.visualizer.statisticVisualizer zIndex 10
par Scenario.visualizer.statisticVisualizer propertyName "\"\""
par Scenario.visualizer.statisticVisualizer propertyIndex "\"\""
par Scenario.visualizer.infoVisualizer typename "\"inet.visualizer.canvas.common.InfoCanvasVisualizer\""
par Scenario.visualizer.infoVisualizer visualizationTargetModule "\"^.^\""
par Scenario.visualizer.infoVisualizer visualizationSubjectModule "\"^.^\""
par Scenario.visualizer.infoVisualizer tags "\"\""
par Scenario.visualizer.infoVisualizer networkNodeVisualizerModule "\"^.networkNodeVisualizer\""
par Scenario.visualizer.infoVisualizer displayInfos true
par Scenario.visualizer.infoVisualizer modules "\"\""
attr mutable ""
par Scenario.visualizer.infoVisualizer format "\"%t\""
attr mutable ""
par Scenario.visualizer.infoVisualizer font "\"<default>\""
par Scenario.visualizer.infoVisualizer textColor "\"black\""
par Scenario.visualizer.infoVisualizer backgroundColor "\"white\""
par Scenario.visualizer.infoVisualizer opacity 1
par Scenario.visualizer.infoVisualizer placementHint "\"top\""
par Scenario.visualizer.infoVisualizer placementPriority 0
par Scenario.visualizer.infoVisualizer zIndex 10
par Scenario.visualizer.energyStorageVisualizer typename "\"inet.visualizer.canvas.power.EnergyStorageCanvasVisualizer\""
par Scenario.visualizer.energyStorageVisualizer visualizationTargetModule "\"^.^\""
par Scenario.visualizer.energyStorageVisualizer visualizationSubjectModule "\"^.^\""
par Scenario.visualizer.energyStorageVisualizer tags "\"\""
par Scenario.visualizer.energyStorageVisualizer networkNodeVisualizerModule "\"^.networkNodeVisualizer\""
par Scenario.visualizer.energyStorageVisualizer displayEnergyStorages false
par Scenario.visualizer.energyStorageVisualizer energyStorageFilter "\"**\""
par Scenario.visualizer.energyStorageVisualizer color "\"green\""
par Scenario.visualizer.energyStorageVisualizer width 8
par Scenario.visualizer.energyStorageVisualizer height 24
par Scenario.visualizer.energyStorageVisualizer spacing 2
par Scenario.visualizer.energyStorageVisualizer placementHint "\"right\""
par Scenario.visualizer.energyStorageVisualizer placementPriority 0
par Scenario.visualizer.energyStorageVisualizer zIndex 10
par Scenario.visualizer.mediumVisualizer typename "\"inet.visualizer.canvas.physicallayer.MediumCanvasVisualizer\""
par Scenario.visualizer.mediumVisualizer visualizationTargetModule "\"^.^\""
par Scenario.visualizer.mediumVisualizer visualizationSubjectModule "\"^.^\""
par Scenario.visualizer.mediumVisualizer tags "\"\""
par Scenario.visualizer.mediumVisualizer mediumModule "\"radioMedium\""
par Scenario.visualizer.mediumVisualizer networkNodeVisualizerModule "\"^.networkNodeVisualizer\""
par Scenario.visualizer.mediumVisualizer nodeFilter "\"*\""
attr mutable ""
par Scenario.visualizer.mediumVisualizer interfaceFilter "\"*\""
attr mutable ""
par Scenario.visualizer.mediumVisualizer packetFilter "(omnetpp::cValueHolder)holder: \"*\""
attr mutable ""
par Scenario.visualizer.mediumVisualizer displaySignals false
par Scenario.visualizer.mediumVisualizer signalColor "\"dark\""
par Scenario.visualizer.mediumVisualizer signalPropagationAnimationSpeed "nan "
attr mutable ""
par Scenario.visualizer.mediumVisualizer signalPropagationAnimationTime 1s
attr unit s
par Scenario.visualizer.mediumVisualizer signalPropagationAdditionalTime 0s
attr unit s
par Scenario.visualizer.mediumVisualizer signalTransmissionAnimationSpeed "nan "
attr mutable ""
par Scenario.visualizer.mediumVisualizer signalTransmissionAnimationTime 1s
attr unit s
par Scenario.visualizer.mediumVisualizer signalAnimationSpeedChangeTimeMode "\"realTime\""
attr enum realTime,animationTime,simulationTime
par Scenario.visualizer.mediumVisualizer signalAnimationSpeedChangeTime 1s
attr unit s
par Scenario.visualizer.mediumVisualizer displaySignalDepartures false
par Scenario.visualizer.mediumVisualizer signalDepartureImage "\"misc/signal_departure.png\""
par Scenario.visualizer.mediumVisualizer signalDeparturePlacementHint "\"topCenter\""
par Scenario.visualizer.mediumVisualizer signalDeparturePlacementPriority 1
par Scenario.visualizer.mediumVisualizer displaySignalArrivals false
par Scenario.visualizer.mediumVisualizer signalArrivalImage "\"misc/signal_arrival.png\""
par Scenario.visualizer.mediumVisualizer signalArrivalPlacementHint "\"topCenter\""
par Scenario.visualizer.mediumVisualizer signalArrivalPlacementPriority -1
par Scenario.visualizer.mediumVisualizer displayCommunicationRanges false
par Scenario.visualizer.mediumVisualizer communicationRangeLineColor "\"blue\""
par Scenario.visualizer.mediumVisualizer communicationRangeLineStyle "\"solid\""
par Scenario.visualizer.mediumVisualizer communicationRangeLineWidth 1
par Scenario.visualizer.mediumVisualizer displayInterferenceRanges false
par Scenario.visualizer.mediumVisualizer interferenceRangeLineColor "\"gray\""
par Scenario.visualizer.mediumVisualizer interferenceRangeLineStyle "\"solid\""
par Scenario.visualizer.mediumVisualizer interferenceRangeLineWidth 1
par Scenario.visualizer.mediumVisualizer autoPowerAxis true
par Scenario.visualizer.mediumVisualizer signalMinPower "inf dBmW"
attr unit dBmW
par Scenario.visualizer.mediumVisualizer signalMaxPower 0dBmW
attr unit dBmW
par Scenario.visualizer.mediumVisualizer signalMinPowerDensity "inf dBmWpMHz"
attr unit dBmWpMHz
par Scenario.visualizer.mediumVisualizer signalMaxPowerDensity "-inf dBmWpMHz"
attr unit dBmWpMHz
par Scenario.visualizer.mediumVisualizer autoTimeAxis true
par Scenario.visualizer.mediumVisualizer signalMinTime 0s
attr unit s
par Scenario.visualizer.mediumVisualizer signalMaxTime 0s
attr unit s
par Scenario.visualizer.mediumVisualizer autoFrequencyAxis true
par Scenario.visualizer.mediumVisualizer signalMinFrequency "inf Hz"
attr unit Hz
par Scenario.visualizer.mediumVisualizer signalMaxFrequency "-inf Hz"
attr unit Hz
par Scenario.visualizer.mediumVisualizer displayMainPowerDensityMap false
par Scenario.visualizer.mediumVisualizer mainPowerDensityMapPixmapDensity 1
par Scenario.visualizer.mediumVisualizer mainPowerDensityMapMinX 0
par Scenario.visualizer.mediumVisualizer mainPowerDensityMapMaxX "nan "
par Scenario.visualizer.mediumVisualizer mainPowerDensityMapMinY 0
par Scenario.visualizer.mediumVisualizer mainPowerDensityMapMaxY "nan "
par Scenario.visualizer.mediumVisualizer mainPowerDensityMapZ 0
par Scenario.visualizer.mediumVisualizer mainPowerDensityMapFigureXTickCount 3
par Scenario.visualizer.mediumVisualizer mainPowerDensityMapFigureYTickCount 3
par Scenario.visualizer.mediumVisualizer displayPowerDensityMaps false
par Scenario.visualizer.mediumVisualizer powerDensityMapMode "\"auto\""
attr enum total,signal,auto
par Scenario.visualizer.mediumVisualizer powerDensityMapPixelMode "\"mean\""
attr enum sample,partition,mean
par Scenario.visualizer.mediumVisualizer powerDensityMapApproximationSize 10
par Scenario.visualizer.mediumVisualizer powerDensityMapCenterFrequency "nan Hz"
attr mutable ""
attr unit Hz
par Scenario.visualizer.mediumVisualizer powerDensityMapBandwidth 0Hz
attr mutable ""
attr unit Hz
par Scenario.visualizer.mediumVisualizer powerDensityMapFigureWidth 200
par Scenario.visualizer.mediumVisualizer powerDensityMapFigureHeight 120
par Scenario.visualizer.mediumVisualizer powerDensityMapPixmapWidth 200
par Scenario.visualizer.mediumVisualizer powerDensityMapPixmapHeight 120
par Scenario.visualizer.mediumVisualizer powerDensityMapZ 0
par Scenario.visualizer.mediumVisualizer powerDensityMapFigureXTickCount 3
par Scenario.visualizer.mediumVisualizer powerDensityMapFigureYTickCount 3
par Scenario.visualizer.mediumVisualizer displaySpectrums false
par Scenario.visualizer.mediumVisualizer spectrumMode "\"auto\""
attr enum total,signal,auto
par Scenario.visualizer.mediumVisualizer spectrumFigureWidth 200
par Scenario.visualizer.mediumVisualizer spectrumFigureHeight 120
par Scenario.visualizer.mediumVisualizer spectrumFigureXTickCount 3
par Scenario.visualizer.mediumVisualizer spectrumFigureYTickCount 5
par Scenario.visualizer.mediumVisualizer spectrumFigureInterpolationSize 5
par Scenario.visualizer.mediumVisualizer spectrumPlacementHint "\"bottomCenter\""
par Scenario.visualizer.mediumVisualizer spectrumPlacementPriority -1
par Scenario.visualizer.mediumVisualizer displaySpectrograms false
par Scenario.visualizer.mediumVisualizer spectrogramMode "\"auto\""
attr enum total,signal,auto
par Scenario.visualizer.mediumVisualizer spectrogramPixelMode "\"mean\""
attr enum sample,partition,mean
par Scenario.visualizer.mediumVisualizer spectrogramFigureWidth 200
par Scenario.visualizer.mediumVisualizer spectrogramFigureHeight 120
par Scenario.visualizer.mediumVisualizer spectrogramPixmapWidth 200
par Scenario.visualizer.mediumVisualizer spectrogramPixmapHeight 120
par Scenario.visualizer.mediumVisualizer spectrogramFigureXTickCount 3
par Scenario.visualizer.mediumVisualizer spectrogramFigureYTickCount 5
par Scenario.visualizer.mediumVisualizer spectrogramPlacementHint "\"bottomCenter\""
par Scenario.visualizer.mediumVisualizer spectrogramPlacementPriority -1
par Scenario.visualizer.mediumVisualizer zIndex 0
par Scenario.visualizer.mediumVisualizer signalShape "\"ring\""
attr enum ring,sphere
par Scenario.visualizer.mediumVisualizer signalOpacity 0.5
par Scenario.visualizer.mediumVisualizer signalRingCount 20
par Scenario.visualizer.mediumVisualizer signalRingSize 50m
attr unit m
par Scenario.visualizer.mediumVisualizer signalFadingDistance 50m
attr unit m
par Scenario.visualizer.mediumVisualizer signalFadingFactor 1.2
par Scenario.visualizer.mediumVisualizer signalWaveCount 20
par Scenario.visualizer.mediumVisualizer signalWaveLength 50m
attr unit m
par Scenario.visualizer.mediumVisualizer signalWaveWidth 10m
attr unit m
par Scenario.visualizer.mediumVisualizer signalWaveFadingAnimationSpeedFactor 1
par Scenario.visualizer.mediumVisualizer displayCommunicationHeat false
par Scenario.visualizer.obstacleLossVisualizer typename "\"inet.visualizer.canvas.physicallayer.TracingObstacleLossCanvasVisualizer\""
par Scenario.visualizer.obstacleLossVisualizer visualizationTargetModule "\"^.^\""
par Scenario.visualizer.obstacleLossVisualizer visualizationSubjectModule "\"^.^\""
par Scenario.visualizer.obstacleLossVisualizer tags "\"\""
par Scenario.visualizer.obstacleLossVisualizer displayIntersections false
par Scenario.visualizer.obstacleLossVisualizer intersectionLineColor "\"red\""
par Scenario.visualizer.obstacleLossVisualizer intersectionLineStyle "\"solid\""
par Scenario.visualizer.obstacleLossVisualizer intersectionLineWidth 1
par Scenario.visualizer.obstacleLossVisualizer displayFaceNormalVectors false
par Scenario.visualizer.obstacleLossVisualizer faceNormalLineColor "\"grey\""
par Scenario.visualizer.obstacleLossVisualizer faceNormalLineStyle "\"solid\""
par Scenario.visualizer.obstacleLossVisualizer faceNormalLineWidth 1
par Scenario.visualizer.obstacleLossVisualizer fadeOutMode "\"realTime\""
attr enum realTime,animationTime,simulationTime
par Scenario.visualizer.obstacleLossVisualizer fadeOutTime 1s
attr unit s
par Scenario.visualizer.obstacleLossVisualizer fadeOutAnimationSpeed 0
par Scenario.visualizer.obstacleLossVisualizer zIndex 0
par Scenario.visualizer.packetDropVisualizer typename "\"inet.visualizer.canvas.common.PacketDropCanvasVisualizer\""
par Scenario.visualizer.packetDropVisualizer visualizationTargetModule "\"^.^\""
par Scenario.visualizer.packetDropVisualizer visualizationSubjectModule "\"^.^\""
par Scenario.visualizer.packetDropVisualizer tags "\"\""
par Scenario.visualizer.packetDropVisualizer displayPacketDrops false
par Scenario.visualizer.packetDropVisualizer nodeFilter "\"*\""
attr mutable ""
par Scenario.visualizer.packetDropVisualizer interfaceFilter "\"*\""
attr mutable ""
par Scenario.visualizer.packetDropVisualizer packetFilter "(omnetpp::cValueHolder)holder: \"*\""
attr mutable ""
par Scenario.visualizer.packetDropVisualizer detailsFilter "\"*\""
attr mutable ""
par Scenario.visualizer.packetDropVisualizer icon "\"msg/packet_s\""
par Scenario.visualizer.packetDropVisualizer iconTintAmount 1
par Scenario.visualizer.packetDropVisualizer iconTintColor "\"dark\""
par Scenario.visualizer.packetDropVisualizer labelFormat "\"%n\""
attr mutable ""
par Scenario.visualizer.packetDropVisualizer labelFont "\"<default>\""
par Scenario.visualizer.packetDropVisualizer labelColor "\"black\""
par Scenario.visualizer.packetDropVisualizer fadeOutMode "\"realTime\""
attr enum realTime,animationTime,simulationTime
par Scenario.visualizer.packetDropVisualizer fadeOutTime 1s
attr unit s
par Scenario.visualizer.packetDropVisualizer fadeOutAnimationSpeed 0
par Scenario.visualizer.packetDropVisualizer zIndex 10
par Scenario.visualizer.packetDropVisualizer dx 32
par Scenario.visualizer.packetDropVisualizer dy 64
par Scenario.visualizer.packetFlowVisualizer typename "\"inet.visualizer.canvas.flow.PacketFlowCanvasVisualizer\""
par Scenario.visualizer.packetFlowVisualizer visualizationTargetModule "\"^.^\""
par Scenario.visualizer.packetFlowVisualizer visualizationSubjectModule "\"^.^\""
par Scenario.visualizer.packetFlowVisualizer tags "\"\""
par Scenario.visualizer.packetFlowVisualizer displayRoutes false
par Scenario.visualizer.packetFlowVisualizer startPathSignal "\"packetFlowStarted\""
par Scenario.visualizer.packetFlowVisualizer extendPathSignal "\"packetReceivedFromLower\""
par Scenario.visualizer.packetFlowVisualizer endPathSignal "\"packetFlowEnded\""
par Scenario.visualizer.packetFlowVisualizer nodeFilter "\"*\""
attr mutable ""
par Scenario.visualizer.packetFlowVisualizer packetFilter "(omnetpp::cValueHolder)holder: \"*\""
attr mutable ""
par Scenario.visualizer.packetFlowVisualizer lineColor "\"dark\""
par Scenario.visualizer.packetFlowVisualizer lineStyle "\"dashed\""
par Scenario.visualizer.packetFlowVisualizer lineWidth 3
par Scenario.visualizer.packetFlowVisualizer lineSmooth false
par Scenario.visualizer.packetFlowVisualizer lineShift 16
par Scenario.visualizer.packetFlowVisualizer lineShiftMode "\"normal\""
par Scenario.visualizer.packetFlowVisualizer lineContactSpacing 3
par Scenario.visualizer.packetFlowVisualizer lineContactMode "\"rectangular\""
attr enum circular,rectangular
par Scenario.visualizer.packetFlowVisualizer labelFormat "\"%L %p pk (%l)\""
par Scenario.visualizer.packetFlowVisualizer labelFont "\"<default>, 8px\""
par Scenario.visualizer.packetFlowVisualizer labelColor "\"\""
par Scenario.visualizer.packetFlowVisualizer fadeOutMode "\"realTime\""
attr enum realTime,animationTime,simulationTime
par Scenario.visualizer.packetFlowVisualizer fadeOutTime 0s
attr unit s
par Scenario.visualizer.packetFlowVisualizer fadeOutAnimationSpeed 0
par Scenario.visualizer.packetFlowVisualizer zIndex 4
par Scenario.visualizer.queueVisualizer typename "\"inet.visualizer.canvas.common.QueueCanvasVisualizer\""
par Scenario.visualizer.queueVisualizer visualizationTargetModule "\"^.^\""
par Scenario.visualizer.queueVisualizer visualizationSubjectModule "\"^.^\""
par Scenario.visualizer.queueVisualizer tags "\"\""
par Scenario.visualizer.queueVisualizer networkNodeVisualizerModule "\"^.networkNodeVisualizer\""
par Scenario.visualizer.queueVisualizer displayQueues false
par Scenario.visualizer.queueVisualizer queueFilter "\"**\""
par Scenario.visualizer.queueVisualizer color "\"blue\""
par Scenario.visualizer.queueVisualizer width 8
par Scenario.visualizer.queueVisualizer height 24
par Scenario.visualizer.queueVisualizer spacing 2
par Scenario.visualizer.queueVisualizer placementHint "\"right\""
par Scenario.visualizer.queueVisualizer placementPriority 0
par Scenario.visualizer.queueVisualizer zIndex 10
par Scenario.visualizer.gateScheduleVisualizer typename "\"inet.visualizer.canvas.common.GateScheduleCanvasVisualizer\""
par Scenario.visualizer.gateScheduleVisualizer visualizationTargetModule "\"^.^\""
par Scenario.visualizer.gateScheduleVisualizer visualizationSubjectModule "\"^.^\""
par Scenario.visualizer.gateScheduleVisualizer tags "\"\""
par Scenario.visualizer.gateScheduleVisualizer networkNodeVisualizerModule "\"^.networkNodeVisualizer\""
par Scenario.visualizer.gateScheduleVisualizer displayGateSchedules false
par Scenario.visualizer.gateScheduleVisualizer labelFormat "\"%i %D\""
par Scenario.visualizer.gateScheduleVisualizer gateFilter "\"**\""
par Scenario.visualizer.gateScheduleVisualizer width 100
par Scenario.visualizer.gateScheduleVisualizer height 8
par Scenario.visualizer.gateScheduleVisualizer spacing 2
par Scenario.visualizer.gateScheduleVisualizer placementHint "\"right\""
par Scenario.visualizer.gateScheduleVisualizer placementPriority 0
par Scenario.visualizer.gateScheduleVisualizer displayDuration 0s
attr mutable ""
attr unit s
par Scenario.visualizer.gateScheduleVisualizer currentTimePosition 50
par Scenario.visualizer.gateScheduleVisualizer zIndex 10
par Scenario.visualizer.radioVisualizer typename "\"inet.visualizer.canvas.physicallayer.RadioCanvasVisualizer\""
par Scenario.visualizer.radioVisualizer visualizationTargetModule "\"^.^\""
par Scenario.visualizer.radioVisualizer visualizationSubjectModule "\"^.^\""
par Scenario.visualizer.radioVisualizer tags "\"\""
par Scenario.visualizer.radioVisualizer networkNodeVisualizerModule "\"^.networkNodeVisualizer\""
par Scenario.visualizer.radioVisualizer displayRadios false
par Scenario.visualizer.radioVisualizer displayRadioMode true
par Scenario.visualizer.radioVisualizer displayReceptionState true
par Scenario.visualizer.radioVisualizer displayTransmissionState true
par Scenario.visualizer.radioVisualizer displayAntennaLobes false
par Scenario.visualizer.radioVisualizer radioFilter "\"**\""
attr mutable ""
par Scenario.visualizer.radioVisualizer radioModeImages "\"block/process_vs block/timer_vs block/wrx_vs block/wtx_vs block/wrxtx_vs block/cogwheel_vs\""
par Scenario.visualizer.radioVisualizer receptionStateImages "\"- - misc/receiving misc/receiving\""
par Scenario.visualizer.radioVisualizer transmissionStateImages "\"- - misc/transmitting\""
par Scenario.visualizer.radioVisualizer width 16
par Scenario.visualizer.radioVisualizer height 16
par Scenario.visualizer.radioVisualizer placementHint "\"bottomRight\""
par Scenario.visualizer.radioVisualizer placementPriority 0
par Scenario.visualizer.radioVisualizer antennaLobeNormalize false
par Scenario.visualizer.radioVisualizer antennaLobeRelativeLabels false
par Scenario.visualizer.radioVisualizer antennaLobePlaneGlobal true
par Scenario.visualizer.radioVisualizer antennaLobePlane "\"view\""
attr enum view,xy,xz,yz
par Scenario.visualizer.radioVisualizer antennaLobeMode "\"logarithmic\""
attr enum logarithmic,linear
par Scenario.visualizer.radioVisualizer antennaLobeLogarithmicBase 10
par Scenario.visualizer.radioVisualizer antennaLobeLogarithmicScale 100
par Scenario.visualizer.radioVisualizer antennaLobeRadius 100
par Scenario.visualizer.radioVisualizer antennaLobeStep 10deg
attr unit deg
par Scenario.visualizer.radioVisualizer antennaLobeOpacity 0.25
par Scenario.visualizer.radioVisualizer antennaLobeLineSmooth true
par Scenario.visualizer.radioVisualizer antennaLobeLineColor "\"black\""
par Scenario.visualizer.radioVisualizer antennaLobeLineStyle "\"solid\""
par Scenario.visualizer.radioVisualizer antennaLobeLineWidth 1
par Scenario.visualizer.radioVisualizer antennaLobeFillColor "\"white\""
par Scenario.visualizer.radioVisualizer zIndex 10
par Scenario.visualizer.physicalLinkVisualizer typename "\"inet.visualizer.canvas.physicallayer.PhysicalLinkCanvasVisualizer\""
par Scenario.visualizer.physicalLinkVisualizer visualizationTargetModule "\"^.^\""
par Scenario.visualizer.physicalLinkVisualizer visualizationSubjectModule "\"^.^\""
par Scenario.visualizer.physicalLinkVisualizer tags "\"\""
par Scenario.visualizer.physicalLinkVisualizer displayLinks false
par Scenario.visualizer.physicalLinkVisualizer activityLevel "\"service\""
attr enum service,peer,protocol
par Scenario.visualizer.physicalLinkVisualizer nodeFilter "\"*\""
attr mutable ""
par Scenario.visualizer.physicalLinkVisualizer interfaceFilter "\"*\""
attr mutable ""
par Scenario.visualizer.physicalLinkVisualizer packetFilter "(omnetpp::cValueHolder)holder: \"*\""
attr mutable ""
par Scenario.visualizer.physicalLinkVisualizer lineColor "\"olive\""
par Scenario.visualizer.physicalLinkVisualizer lineStyle "\"dotted\""
par Scenario.visualizer.physicalLinkVisualizer lineWidth 3
par Scenario.visualizer.physicalLinkVisualizer lineShift 16
par Scenario.visualizer.physicalLinkVisualizer lineShiftMode "\"normal\""
par Scenario.visualizer.physicalLinkVisualizer lineContactSpacing 3
par Scenario.visualizer.physicalLinkVisualizer lineContactMode "\"rectangular\""
attr enum circular,rectangular
par Scenario.visualizer.physicalLinkVisualizer labelFormat "\"%n\""
par Scenario.visualizer.physicalLinkVisualizer labelFont "\"<default>, 8px\""
par Scenario.visualizer.physicalLinkVisualizer labelColor "\"olive\""
par Scenario.visualizer.physicalLinkVisualizer fadeOutMode "\"realTime\""
attr enum realTime,animationTime,simulationTime
par Scenario.visualizer.physicalLinkVisualizer fadeOutTime 1s
attr unit s
par Scenario.visualizer.physicalLinkVisualizer fadeOutAnimationSpeed 0
par Scenario.visualizer.physicalLinkVisualizer holdAnimationTime 0s
attr unit s
par Scenario.visualizer.physicalLinkVisualizer zIndex 1
par Scenario.visualizer.interfaceTableVisualizer typename "\"inet.visualizer.canvas.linklayer.InterfaceTableCanvasVisualizer\""
par Scenario.visualizer.interfaceTableVisualizer visualizationTargetModule "\"^.^\""
par Scenario.visualizer.interfaceTableVisualizer visualizationSubjectModule "\"^.^\""
par Scenario.visualizer.interfaceTableVisualizer tags "\"\""
par Scenario.visualizer.interfaceTableVisualizer networkNodeVisualizerModule "\"^.networkNodeVisualizer\""
par Scenario.visualizer.interfaceTableVisualizer displayInterfaceTables false
par Scenario.visualizer.interfaceTableVisualizer displayWiredInterfacesAtConnections true
par Scenario.visualizer.interfaceTableVisualizer displayBackground false
par Scenario.visualizer.interfaceTableVisualizer nodeFilter "\"*\""
attr mutable ""
par Scenario.visualizer.interfaceTableVisualizer interfaceFilter "\"not(lo*)\""
attr mutable ""
par Scenario.visualizer.interfaceTableVisualizer format "\"%N %\\\\%a%/%l\""
attr mutable ""
par Scenario.visualizer.interfaceTableVisualizer placementHint "\"top\""
par Scenario.visualizer.interfaceTableVisualizer placementPriority 0
par Scenario.visualizer.interfaceTableVisualizer font "\"<default>\""
par Scenario.visualizer.interfaceTableVisualizer textColor "\"#005030\""
par Scenario.visualizer.interfaceTableVisualizer backgroundColor "\"white\""
par Scenario.visualizer.interfaceTableVisualizer opacity 1
par Scenario.visualizer.interfaceTableVisualizer zIndex 10
par Scenario.visualizer.dataLinkVisualizer typename "\"inet.visualizer.canvas.linklayer.DataLinkCanvasVisualizer\""
par Scenario.visualizer.dataLinkVisualizer visualizationTargetModule "\"^.^\""
par Scenario.visualizer.dataLinkVisualizer visualizationSubjectModule "\"^.^\""
par Scenario.visualizer.dataLinkVisualizer tags "\"\""
par Scenario.visualizer.dataLinkVisualizer displayLinks false
par Scenario.visualizer.dataLinkVisualizer activityLevel "\"service\""
attr enum service,peer,protocol
par Scenario.visualizer.dataLinkVisualizer nodeFilter "\"*\""
attr mutable ""
par Scenario.visualizer.dataLinkVisualizer interfaceFilter "\"*\""
attr mutable ""
par Scenario.visualizer.dataLinkVisualizer packetFilter "(omnetpp::cValueHolder)holder: \"*\""
attr mutable ""
par Scenario.visualizer.dataLinkVisualizer lineColor "\"darkcyan\""
par Scenario.visualizer.dataLinkVisualizer lineStyle "\"solid\""
par Scenario.visualizer.dataLinkVisualizer lineWidth 3
par Scenario.visualizer.dataLinkVisualizer lineShift 16
par Scenario.visualizer.dataLinkVisualizer lineShiftMode "\"normal\""
par Scenario.visualizer.dataLinkVisualizer lineContactSpacing 3
par Scenario.visualizer.dataLinkVisualizer lineContactMode "\"rectangular\""
attr enum circular,rectangular
par Scenario.visualizer.dataLinkVisualizer labelFormat "\"%n\""
par Scenario.visualizer.dataLinkVisualizer labelFont "\"<default>, 8px\""
par Scenario.visualizer.dataLinkVisualizer labelColor "\"darkcyan\""
par Scenario.visualizer.dataLinkVisualizer fadeOutMode "\"realTime\""
attr enum realTime,animationTime,simulationTime
par Scenario.visualizer.dataLinkVisualizer fadeOutTime 1s
attr unit s
par Scenario.visualizer.dataLinkVisualizer fadeOutAnimationSpeed 0
par Scenario.visualizer.dataLinkVisualizer holdAnimationTime 0s
attr unit s
par Scenario.visualizer.dataLinkVisualizer zIndex 2
par Scenario.visualizer.linkBreakVisualizer typename "\"inet.visualizer.canvas.linklayer.LinkBreakCanvasVisualizer\""
par Scenario.visualizer.linkBreakVisualizer visualizationTargetModule "\"^.^\""
par Scenario.visualizer.linkBreakVisualizer visualizationSubjectModule "\"^.^\""
par Scenario.visualizer.linkBreakVisualizer tags "\"\""
par Scenario.visualizer.linkBreakVisualizer displayLinkBreaks false
par Scenario.visualizer.linkBreakVisualizer nodeFilter "\"*\""
attr mutable ""
par Scenario.visualizer.linkBreakVisualizer interfaceFilter "\"*\""
attr mutable ""
par Scenario.visualizer.linkBreakVisualizer packetFilter "(omnetpp::cValueHolder)holder: \"*\""
attr mutable ""
par Scenario.visualizer.linkBreakVisualizer icon "\"status/stop\""
par Scenario.visualizer.linkBreakVisualizer iconTintAmount 0
par Scenario.visualizer.linkBreakVisualizer iconTintColor "\"\""
par Scenario.visualizer.linkBreakVisualizer fadeOutMode "\"realTime\""
attr enum realTime,animationTime,simulationTime
par Scenario.visualizer.linkBreakVisualizer fadeOutTime 1s
attr unit s
par Scenario.visualizer.linkBreakVisualizer fadeOutAnimationSpeed 0
par Scenario.visualizer.linkBreakVisualizer zIndex 2
par Scenario.visualizer.ieee80211Visualizer typename "\"inet.visualizer.canvas.linklayer.Ieee80211CanvasVisualizer\""
par Scenario.visualizer.ieee80211Visualizer visualizationTargetModule "\"^.^\""
par Scenario.visualizer.ieee80211Visualizer visualizationSubjectModule "\"^.^\""
par Scenario.visualizer.ieee80211Visualizer tags "\"\""
par Scenario.visualizer.ieee80211Visualizer networkNodeVisualizerModule "\"^.networkNodeVisualizer\""
par Scenario.visualizer.ieee80211Visualizer displayAssociations false
par Scenario.visualizer.ieee80211Visualizer nodeFilter "\"*\""
attr mutable ""
par Scenario.visualizer.ieee80211Visualizer interfaceFilter "\"*\""
attr mutable ""
par Scenario.visualizer.ieee80211Visualizer minPower -85dBm
attr unit dBm
par Scenario.visualizer.ieee80211Visualizer maxPower -50dBm
attr unit dBm
par Scenario.visualizer.ieee80211Visualizer icons "\"misc/signal_power_0 misc/signal_power_1 misc/signal_power_2 misc/signal_power_3\""
par Scenario.visualizer.ieee80211Visualizer iconColor "\"dark\""
par Scenario.visualizer.ieee80211Visualizer labelFont "\"<default>\""
par Scenario.visualizer.ieee80211Visualizer labelColor "\"black\""
par Scenario.visualizer.ieee80211Visualizer placementHint "\"top\""
par Scenario.visualizer.ieee80211Visualizer placementPriority 0
par Scenario.visualizer.ieee80211Visualizer zIndex 2
par Scenario.visualizer.networkRouteVisualizer typename "\"inet.visualizer.canvas.networklayer.NetworkRouteCanvasVisualizer\""
par Scenario.visualizer.networkRouteVisualizer visualizationTargetModule "\"^.^\""
par Scenario.visualizer.networkRouteVisualizer visualizationSubjectModule "\"^.^\""
par Scenario.visualizer.networkRouteVisualizer tags "\"\""
par Scenario.visualizer.networkRouteVisualizer displayRoutes false
par Scenario.visualizer.networkRouteVisualizer startPathSignal "\"packetReceivedFromUpper\""
par Scenario.visualizer.networkRouteVisualizer extendPathSignal "\"packetReceivedFromLower\""
par Scenario.visualizer.networkRouteVisualizer endPathSignal "\"packetSentToUpper\""
par Scenario.visualizer.networkRouteVisualizer nodeFilter "\"*\""
attr mutable ""
par Scenario.visualizer.networkRouteVisualizer packetFilter "(omnetpp::cValueHolder)holder: \"*\""
attr mutable ""
par Scenario.visualizer.networkRouteVisualizer lineColor "\"dark\""
par Scenario.visualizer.networkRouteVisualizer lineStyle "\"solid\""
par Scenario.visualizer.networkRouteVisualizer lineWidth 3
par Scenario.visualizer.networkRouteVisualizer lineSmooth false
par Scenario.visualizer.networkRouteVisualizer lineShift 16
par Scenario.visualizer.networkRouteVisualizer lineShiftMode "\"normal\""
par Scenario.visualizer.networkRouteVisualizer lineContactSpacing 3
par Scenario.visualizer.networkRouteVisualizer lineContactMode "\"rectangular\""
attr enum circular,rectangular
par Scenario.visualizer.networkRouteVisualizer labelFormat "\"%n\""
par Scenario.visualizer.networkRouteVisualizer labelFont "\"<default>, 8px\""
par Scenario.visualizer.networkRouteVisualizer labelColor "\"\""
par Scenario.visualizer.networkRouteVisualizer fadeOutMode "\"realTime\""
attr enum realTime,animationTime,simulationTime
par Scenario.visualizer.networkRouteVisualizer fadeOutTime 1s
attr unit s
par Scenario.visualizer.networkRouteVisualizer fadeOutAnimationSpeed 0
par Scenario.visualizer.networkRouteVisualizer zIndex 3
par Scenario.visualizer.routingTableVisualizer typename "\"inet.visualizer.canvas.networklayer.RoutingTableCanvasVisualizer\""
par Scenario.visualizer.routingTableVisualizer visualizationTargetModule "\"^.^\""
par Scenario.visualizer.routingTableVisualizer visualizationSubjectModule "\"^.^\""
par Scenario.visualizer.routingTableVisualizer tags "\"\""
par Scenario.visualizer.routingTableVisualizer displayRoutingTables false
par Scenario.visualizer.routingTableVisualizer displayRoutesIndividually true
par Scenario.visualizer.routingTableVisualizer displayLabels true
par Scenario.visualizer.routingTableVisualizer destinationFilter "\"*\""
attr mutable ""
par Scenario.visualizer.routingTableVisualizer nodeFilter "\"*\""
attr mutable ""
par Scenario.visualizer.routingTableVisualizer lineColor "\"black\""
par Scenario.visualizer.routingTableVisualizer lineStyle "\"solid\""
par Scenario.visualizer.routingTableVisualizer lineWidth 2
par Scenario.visualizer.routingTableVisualizer lineShift 16
par Scenario.visualizer.routingTableVisualizer lineShiftMode "\"normal\""
par Scenario.visualizer.routingTableVisualizer lineContactSpacing 3
par Scenario.visualizer.routingTableVisualizer lineContactMode "\"rectangular\""
attr enum circular,rectangular
par Scenario.visualizer.routingTableVisualizer labelFormat "\"%d/%m -> %g (%n)\""
attr mutable ""
par Scenario.visualizer.routingTableVisualizer labelFont "\"<default>, 8px\""
par Scenario.visualizer.routingTableVisualizer labelColor "\"black\""
par Scenario.visualizer.routingTableVisualizer zIndex 0
par Scenario.visualizer.transportRouteVisualizer typename "\"inet.visualizer.canvas.transportlayer.TransportRouteCanvasVisualizer\""
par Scenario.visualizer.transportRouteVisualizer visualizationTargetModule "\"^.^\""
par Scenario.visualizer.transportRouteVisualizer visualizationSubjectModule "\"^.^\""
par Scenario.visualizer.transportRouteVisualizer tags "\"\""
par Scenario.visualizer.transportRouteVisualizer displayRoutes false
par Scenario.visualizer.transportRouteVisualizer startPathSignal "\"packetReceivedFromUpper\""
par Scenario.visualizer.transportRouteVisualizer extendPathSignal "\"packetReceivedFromLower\""
par Scenario.visualizer.transportRouteVisualizer endPathSignal "\"packetSentToUpper\""
par Scenario.visualizer.transportRouteVisualizer nodeFilter "\"*\""
attr mutable ""
par Scenario.visualizer.transportRouteVisualizer packetFilter "(omnetpp::cValueHolder)holder: \"*\""
attr mutable ""
par Scenario.visualizer.transportRouteVisualizer lineColor "\"dark\""
par Scenario.visualizer.transportRouteVisualizer lineStyle "\"solid\""
par Scenario.visualizer.transportRouteVisualizer lineWidth 3
par Scenario.visualizer.transportRouteVisualizer lineSmooth false
par Scenario.visualizer.transportRouteVisualizer lineShift 16
par Scenario.visualizer.transportRouteVisualizer lineShiftMode "\"normal\""
par Scenario.visualizer.transportRouteVisualizer lineContactSpacing 3
par Scenario.visualizer.transportRouteVisualizer lineContactMode "\"rectangular\""
attr enum circular,rectangular
par Scenario.visualizer.transportRouteVisualizer labelFormat "\"%n\""
par Scenario.visualizer.transportRouteVisualizer labelFont "\"<default>, 8px\""
par Scenario.visualizer.transportRouteVisualizer labelColor "\"\""
par Scenario.visualizer.transportRouteVisualizer fadeOutMode "\"realTime\""
attr enum realTime,animationTime,simulationTime
par Scenario.visualizer.transportRouteVisualizer fadeOutTime 1s
attr unit s
par Scenario.visualizer.transportRouteVisualizer fadeOutAnimationSpeed 0
par Scenario.visualizer.transportRouteVisualizer zIndex 4
par Scenario.visualizer.transportConnectionVisualizer typename "\"inet.visualizer.canvas.transportlayer.TransportConnectionCanvasVisualizer\""
par Scenario.visualizer.transportConnectionVisualizer visualizationTargetModule "\"^.^\""
par Scenario.visualizer.transportConnectionVisualizer visualizationSubjectModule "\"^.^\""
par Scenario.visualizer.transportConnectionVisualizer tags "\"\""
par Scenario.visualizer.transportConnectionVisualizer networkNodeVisualizerModule "\"^.networkNodeVisualizer\""
par Scenario.visualizer.transportConnectionVisualizer displayTransportConnections false
par Scenario.visualizer.transportConnectionVisualizer sourceNodeFilter "\"*\""
attr mutable ""
par Scenario.visualizer.transportConnectionVisualizer sourcePortFilter "\"*\""
attr mutable ""
par Scenario.visualizer.transportConnectionVisualizer destinationNodeFilter "\"*\""
attr mutable ""
par Scenario.visualizer.transportConnectionVisualizer destinationPortFilter "\"*\""
attr mutable ""
par Scenario.visualizer.transportConnectionVisualizer icon "\"misc/marker_s\""
par Scenario.visualizer.transportConnectionVisualizer iconColor "\"dark\""
par Scenario.visualizer.transportConnectionVisualizer labelFont "\"<default>\""
par Scenario.visualizer.transportConnectionVisualizer labelColor "\"black\""
par Scenario.visualizer.transportConnectionVisualizer placementHint "\"top\""
par Scenario.visualizer.transportConnectionVisualizer placementPriority 0
par Scenario.visualizer.transportConnectionVisualizer zIndex 4
par Scenario.visualizer.failureProtectionConfigurationVisualizer typename "\"inet.visualizer.canvas.configurator.FailureProtectionConfigurationCanvasVisualizer\""
par Scenario.visualizer.failureProtectionConfigurationVisualizer visualizationTargetModule "\"^.^\""
par Scenario.visualizer.failureProtectionConfigurationVisualizer visualizationSubjectModule "\"^.^\""
par Scenario.visualizer.failureProtectionConfigurationVisualizer tags "\"\""
par Scenario.visualizer.failureProtectionConfigurationVisualizer displayTrees false
par Scenario.visualizer.failureProtectionConfigurationVisualizer lineColor "\"dark\""
par Scenario.visualizer.failureProtectionConfigurationVisualizer lineStyle "\"solid\""
par Scenario.visualizer.failureProtectionConfigurationVisualizer lineWidth 3
par Scenario.visualizer.failureProtectionConfigurationVisualizer lineSmooth false
par Scenario.visualizer.failureProtectionConfigurationVisualizer lineShift 16
par Scenario.visualizer.failureProtectionConfigurationVisualizer lineShiftMode "\"normal\""
par Scenario.visualizer.failureProtectionConfigurationVisualizer lineContactSpacing 3
par Scenario.visualizer.failureProtectionConfigurationVisualizer lineContactMode "\"rectangular\""
attr enum circular,rectangular
par Scenario.visualizer.failureProtectionConfigurationVisualizer failureProtectionConfiguratorModule "\"failureProtectionConfigurator\""
par Scenario.visualizer.failureProtectionConfigurationVisualizer streamFilter "\"*\""
par Scenario.visualizer.failureProtectionConfigurationVisualizer zIndex 3
par Scenario.visualizer.streamRedundancyConfigurationVisualizer typename "\"inet.visualizer.canvas.configurator.StreamRedundancyConfigurationCanvasVisualizer\""
par Scenario.visualizer.streamRedundancyConfigurationVisualizer visualizationTargetModule "\"^.^\""
par Scenario.visualizer.streamRedundancyConfigurationVisualizer visualizationSubjectModule "\"^.^\""
par Scenario.visualizer.streamRedundancyConfigurationVisualizer tags "\"\""
par Scenario.visualizer.streamRedundancyConfigurationVisualizer displayTrees false
par Scenario.visualizer.streamRedundancyConfigurationVisualizer lineColor "\"dark\""
par Scenario.visualizer.streamRedundancyConfigurationVisualizer lineStyle "\"solid\""
par Scenario.visualizer.streamRedundancyConfigurationVisualizer lineWidth 3
par Scenario.visualizer.streamRedundancyConfigurationVisualizer lineSmooth false
par Scenario.visualizer.streamRedundancyConfigurationVisualizer lineShift 16
par Scenario.visualizer.streamRedundancyConfigurationVisualizer lineShiftMode "\"normal\""
par Scenario.visualizer.streamRedundancyConfigurationVisualizer lineContactSpacing 3
par Scenario.visualizer.streamRedundancyConfigurationVisualizer lineContactMode "\"rectangular\""
attr enum circular,rectangular
par Scenario.visualizer.streamRedundancyConfigurationVisualizer streamRedundancyConfiguratorModule "\"streamRedundancyConfigurator\""
par Scenario.visualizer.streamRedundancyConfigurationVisualizer streamFilter "\"*\""
par Scenario.visualizer.streamRedundancyConfigurationVisualizer zIndex 3
par Scenario.visualizer typename "\"inet.visualizer.canvas.integrated.IntegratedCanvasVisualizer\""
par Scenario.radioMedium.propagation typename "\"inet.physicallayer.wireless.common.propagation.ConstantSpeedPropagation\""
par Scenario.radioMedium.propagation propagationSpeed 2.99792e+08mps
attr unit mps
par Scenario.radioMedium.propagation ignoreMovementDuringTransmission true
par Scenario.radioMedium.propagation ignoreMovementDuringPropagation true
par Scenario.radioMedium.propagation ignoreMovementDuringReception true
scalar Scenario.radioMedium.propagation "Arrival computation count" 0
par Scenario.radioMedium.analogModel typename "\"inet.physicallayer.wireless.common.analogmodel.packetlevel.ScalarAnalogModel\""
par Scenario.radioMedium.analogModel ignorePartialInterference false
par Scenario.radioMedium.backgroundNoise typename "\"inet.physicallayer.wireless.common.backgroundnoise.IsotropicScalarBackgroundNoise\""
par Scenario.radioMedium.backgroundNoise power -110dBm
attr unit dBm
par Scenario.radioMedium.backgroundNoise bandwidth "nan Hz"
attr unit Hz
par Scenario.radioMedium.pathLoss typename "\"inet.physicallayer.wireless.common.pathloss.FreeSpacePathLoss\""
par Scenario.radioMedium.pathLoss alpha 2
par Scenario.radioMedium.pathLoss systemLoss 0dB
attr unit dB
par Scenario.radioMedium.mediumLimitCache typename "\"inet.physicallayer.wireless.common.medium.MediumLimitCache\""
par Scenario.radioMedium.mediumLimitCache centerFrequency 2.4e+09Hz
attr unit Hz
par Scenario.radioMedium.mediumLimitCache maxSpeed "nan mps"
attr unit mps
par Scenario.radioMedium.mediumLimitCache maxTransmissionPower "nan W"
attr unit W
par Scenario.radioMedium.mediumLimitCache minInterferencePower -110dBm
attr unit dBm
par Scenario.radioMedium.mediumLimitCache minReceptionPower -85dBm
attr unit dBm
par Scenario.radioMedium.mediumLimitCache maxAntennaGain 0dB
attr unit dB
par Scenario.radioMedium.mediumLimitCache minInterferenceTime 1e-12s
attr unit s
par Scenario.radioMedium.mediumLimitCache maxTransmissionDuration 0.01s
attr unit s
par Scenario.radioMedium.mediumLimitCache maxCommunicationRange "nan m"
attr unit m
par Scenario.radioMedium.mediumLimitCache maxInterferenceRange "nan m"
attr unit m
par Scenario.radioMedium.communicationCache typename "\"inet.physicallayer.wireless.common.communicationcache.VectorCommunicationCache\""
par Scenario.radioMedium typename "\"inet.physicallayer.wireless.ieee80211.packetlevel.Ieee80211ScalarRadioMedium\""
par Scenario.radioMedium physicalEnvironmentModule "\"physicalEnvironment\""
par Scenario.radioMedium signalAnalogRepresentation "\"scalar\""
attr enum unitDisk,scalar,dimensional
par Scenario.radioMedium rangeFilter "\"\""
par Scenario.radioMedium radioModeFilter false
par Scenario.radioMedium listeningFilter false
par Scenario.radioMedium macAddressFilter false
par Scenario.radioMedium recordTransmissionLog false
par Scenario.radioMedium recordReceptionLog false
scalar Scenario.radioMedium "transmission count" 0
scalar Scenario.radioMedium "signal send count" 0
scalar Scenario.radioMedium "reception computation count" 0
scalar Scenario.radioMedium "interference computation count" 6
scalar Scenario.radioMedium "reception decision computation count" 0
scalar Scenario.radioMedium "listening decision computation count" 6
scalar Scenario.radioMedium "reception cache hit" -nan
attr unit %
scalar Scenario.radioMedium "interference cache hit" -nan
attr unit %
scalar Scenario.radioMedium "noise cache hit" -nan
attr unit %
scalar Scenario.radioMedium "snir cache hit" -nan
attr unit %
scalar Scenario.radioMedium "reception decision cache hit" -nan
attr unit %
scalar Scenario.radioMedium "reception result cache hit" -nan
attr unit %
par Scenario.host[0].radioIn[0].channel typename "\"ned.IdealChannel\""
par Scenario.host[0].mobility typename "\"inet.mobility.single.MassMobility\""
par Scenario.host[0].mobility subjectModule "\"^\""
par Scenario.host[0].mobility coordinateSystemModule "\"\""
par Scenario.host[0].mobility displayStringTextFormat "\"p: %p\\nv: %v\""
attr mutable ""
par Scenario.host[0].mobility updateDisplayString true
par Scenario.host[0].mobility constraintAreaMinX 0m
attr unit m
par Scenario.host[0].mobility constraintAreaMinY 0m
attr unit m
par Scenario.host[0].mobility constraintAreaMinZ 0m
attr unit m
par Scenario.host[0].mobility constraintAreaMaxX 600m
attr unit m
par Scenario.host[0].mobility constraintAreaMaxY 400m
attr unit m
par Scenario.host[0].mobility constraintAreaMaxZ 0m
attr unit m
par Scenario.host[0].mobility updateInterval 0.1s
attr unit s
par Scenario.host[0].mobility faceForward true
par Scenario.host[0].mobility initialX 329.288m
attr unit m
par Scenario.host[0].mobility initialY 237.138m
attr unit m
par Scenario.host[0].mobility initialZ 0m
attr unit m
par Scenario.host[0].mobility initialMovementHeading 303.936deg
attr unit deg
par Scenario.host[0].mobility initialMovementElevation 0deg
attr unit deg
par Scenario.host[0].mobility initFromDisplayString false
par Scenario.host[0].mobility changeInterval "truncnormal(2s, 0.5s)"
attr unit s
par Scenario.host[0].mobility angleDelta "normal(0deg, 30deg)"
attr unit deg
par Scenario.host[0].mobility rotationAxisAngle 0deg
attr unit deg
par Scenario.host[0].mobility speed "truncnormal(20mps, 8mps)"
attr mutable ""
attr unit mps
par Scenario.host[0].interfaceTable typename "\"inet.networklayer.common.InterfaceTable\""
par Scenario.host[0].interfaceTable displayAddresses false
par Scenario.host[0].cb typename "\"inet.common.MessageDispatcher\""
par Scenario.host[0].cb displayStringTextFormat "\"processed %p pk (%l)\""
par Scenario.host[0].cb forwardServiceRegistration true
par Scenario.host[0].cb forwardProtocolRegistration true
par Scenario.host[0].bl typename "\"inet.common.MessageDispatcher\""
par Scenario.host[0].bl displayStringTextFormat "\"processed %p pk (%l)\""
par Scenario.host[0].bl forwardServiceRegistration true
par Scenario.host[0].bl forwardProtocolRegistration true
par Scenario.host[0].li typename "\"inet.common.MessageDispatcher\""
par Scenario.host[0].li displayStringTextFormat "\"processed %p pk (%l)\""
par Scenario.host[0].li forwardServiceRegistration true
par Scenario.host[0].li forwardProtocolRegistration true
par Scenario.host[0].lo[0].upperLayerIn.channel typename "\"ned.IdealChannel\""
par Scenario.host[0].lo[0].lo.upperLayerOut.channel typename "\"ned.IdealChannel\""
par Scenario.host[0].lo[0].lo typename "\"inet.linklayer.loopback.Loopback\""
par Scenario.host[0].lo[0].lo interfaceTableModule "\"Scenario.host[0].interfaceTable\""
par Scenario.host[0].lo[0].lo mtu 4470B
attr unit B
scalar Scenario.host[0].lo[0].lo rcvdPkFromHl:count 0
attr interpolationmode none
attr recordingmode count
attr source packetReceivedFromUpper
attr title "packets received from higher layer, count"
scalar Scenario.host[0].lo[0].lo rcvdPkFromHl:sum(packetBytes) 0
attr interpolationmode none
attr recordingmode sum(packetBytes)
attr source packetReceivedFromUpper
attr title "packets received from higher layer, sum(packetBytes)"
scalar Scenario.host[0].lo[0].lo passedUpPk:count 0
attr interpolationmode none
attr recordingmode count
attr source packetSentToUpper
attr title "packets passed to higher layer, count"
scalar Scenario.host[0].lo[0].lo passedUpPk:sum(packetBytes) 0
attr interpolationmode none
attr recordingmode sum(packetBytes)
attr source packetSentToUpper
attr title "packets passed to higher layer, sum(packetBytes)"
par Scenario.host[0].lo[0] typename "\"inet.linklayer.loopback.LoopbackInterface\""
par Scenario.host[0].lo[0] displayStringTextFormat "\"%a (%i)\\n%m\""
par Scenario.host[0].lo[0] recordPcap false
par Scenario.host[0].lo[0] numPcapRecorders 0
par Scenario.host[0].lo[0] interfaceTableModule "\"Scenario.host[0].interfaceTable\""
scalar Scenario.host[0].lo[0] packetDropInterfaceDown:count 0
attr interpolationmode none
attr recordingmode count
attr source packetDropReasonIsInterfaceDown(packetDropped)
attr title "packet drops: interface down, count"
scalar Scenario.host[0].lo[0] packetDropInterfaceDown:sum(packetBytes) 0
attr interpolationmode none
attr recordingmode sum(packetBytes)
attr source packetDropReasonIsInterfaceDown(packetDropped)
attr title "packet drops: interface down, sum(packetBytes)"
scalar Scenario.host[0].lo[0] packetDropNoCarrier:count 0
attr interpolationmode none
attr recordingmode count
attr source packetDropReasonIsNoCarrier(packetDropped)
attr title "packet drops: no carrier, count"
scalar Scenario.host[0].lo[0] packetDropNoCarrier:sum(packetBytes) 0
attr interpolationmode none
attr recordingmode sum(packetBytes)
attr source packetDropReasonIsNoCarrier(packetDropped)
attr title "packet drops: no carrier, sum(packetBytes)"
par Scenario.host[0].wlan[0].radioIn.channel typename "\"ned.IdealChannel\""
par Scenario.host[0].wlan[0].llc.upperLayerOut.channel typename "\"ned.IdealChannel\""
par Scenario.host[0].wlan[0].upperLayerIn.channel typename "\"ned.IdealChannel\""
par Scenario.host[0].wlan[0].mib typename "\"inet.linklayer.ieee80211.mib.Ieee80211Mib\""
par Scenario.host[0].wlan[0].llc typename "\"inet.linklayer.ieee80211.llc.Ieee80211LlcLpd\""
par Scenario.host[0].wlan[0].llc registerProtocol false
par Scenario.host[0].wlan[0].mgmt typename "\"inet.linklayer.ieee80211.mgmt.Ieee80211MgmtAdhoc\""
par Scenario.host[0].wlan[0].mgmt mibModule "\"Scenario.host[0].wlan[0].mib\""
par Scenario.host[0].wlan[0].mgmt macModule "\"Scenario.host[0].wlan[0].mac\""
par Scenario.host[0].wlan[0].mgmt interfaceTableModule "\"Scenario.host[0].interfaceTable\""
par Scenario.host[0].wlan[0].mac.dcf.channelAccess.pendingQueue typename "\"inet.linklayer.ieee80211.mac.queue.PendingQueue\""
par Scenario.host[0].wlan[0].mac.dcf.channelAccess.pendingQueue displayStringTextFormat "\"contains %p pk (%l) pushed %u\\npulled %o removed %r dropped %d\""
par Scenario.host[0].wlan[0].mac.dcf.channelAccess.pendingQueue packetCapacity 100
par Scenario.host[0].wlan[0].mac.dcf.channelAccess.pendingQueue dataCapacity -1b
attr unit b
par Scenario.host[0].wlan[0].mac.dcf.channelAccess.pendingQueue dropperClass "\"inet::queueing::PacketAtCollectionEndDropper\""
par Scenario.host[0].wlan[0].mac.dcf.channelAccess.pendingQueue comparatorClass "\"inet::ieee80211::MgmtOverDataComparator\""
par Scenario.host[0].wlan[0].mac.dcf.channelAccess.pendingQueue bufferModule "\"\""
scalar Scenario.host[0].wlan[0].mac.dcf.channelAccess.pendingQueue queueLength:last 0
attr autoWarmupFilter false
attr interpolationmode sample-hold
attr recordingmode last
attr source "warmup(atomic(constant0(packetPushEnded) + count(packetPushStarted) - count(packetPulled) - count(packetRemoved) - count(packetDropped)))"
attr title "queue length, last"
attr unit pk
scalar Scenario.host[0].wlan[0].mac.dcf.channelAccess.pendingQueue queueLength:max 0
attr autoWarmupFilter false
attr interpolationmode sample-hold
attr recordingmode max
attr source "warmup(atomic(constant0(packetPushEnded) + count(packetPushStarted) - count(packetPulled) - count(packetRemoved) - count(packetDropped)))"
attr title "queue length, max"
attr unit pk
scalar Scenario.host[0].wlan[0].mac.dcf.channelAccess.pendingQueue queueLength:timeavg 0
attr autoWarmupFilter false
attr interpolationmode sample-hold
attr recordingmode timeavg
attr source "warmup(atomic(constant0(packetPushEnded) + count(packetPushStarted) - count(packetPulled) - count(packetRemoved) - count(packetDropped)))"
attr title "queue length, timeavg"
attr unit pk
scalar Scenario.host[0].wlan[0].mac.dcf.channelAccess.pendingQueue queueBitLength:last 0
attr autoWarmupFilter false
attr interpolationmode sample-hold
attr recordingmode last
attr source "warmup(atomic(constant0(packetPushEnded) + sum(packetLength(packetPushStarted)) - sum(packetLength(packetPulled)) - sum(packetLength(packetRemoved)) - sum(packetLength(packetDropped))))"
attr title "queue bit length, last"
attr unit b
scalar Scenario.host[0].wlan[0].mac.dcf.channelAccess.pendingQueue queueBitLength:max 0
attr autoWarmupFilter false
attr interpolationmode sample-hold
attr recordingmode max
attr source "warmup(atomic(constant0(packetPushEnded) + sum(packetLength(packetPushStarted)) - sum(packetLength(packetPulled)) - sum(packetLength(packetRemoved)) - sum(packetLength(packetDropped))))"
attr title "queue bit length, max"
attr unit b
scalar Scenario.host[0].wlan[0].mac.dcf.channelAccess.pendingQueue queueBitLength:timeavg 0
attr autoWarmupFilter false
attr interpolationmode sample-hold
attr recordingmode timeavg
attr source "warmup(atomic(constant0(packetPushEnded) + sum(packetLength(packetPushStarted)) - sum(packetLength(packetPulled)) - sum(packetLength(packetRemoved)) - sum(packetLength(packetDropped))))"
attr title "queue bit length, timeavg"
attr unit b
statistic Scenario.host[0].wlan[0].mac.dcf.channelAccess.pendingQueue queueingTime:histogram
field count 0
field mean -nan
field stddev nan
field min nan
field max nan
field sum 0
field sqrsum 0
attr interpolationmode none
attr recordingmode histogram
attr source queueingTime(packetPulled)
attr title "queueing times"
attr unit s
bin	-inf	0
bin	0	0
bin	1	0
scalar Scenario.host[0].wlan[0].mac.dcf.channelAccess.pendingQueue outgoingPackets:count 0
attr recordingmode count
attr source packetPulled
attr title "outgoing packets, count"
attr unit pk
scalar Scenario.host[0].wlan[0].mac.dcf.channelAccess.pendingQueue outgoingPacketLengths:sum 0
attr interpolationmode none
attr recordingmode sum
attr source packetLength(packetPulled)
attr title "outgoing packet lengths, sum"
attr unit b
statistic Scenario.host[0].wlan[0].mac.dcf.channelAccess.pendingQueue outgoingPacketLengths:histogram
field count 0
field mean -nan
field stddev nan
field min nan
field max nan
field sum 0
field sqrsum 0
attr interpolationmode none
attr recordingmode histogram
attr source packetLength(packetPulled)
attr title "outgoing packet lengths"
attr unit b
bin	-inf	0
bin	0	0
bin	1	0
statistic Scenario.host[0].wlan[0].mac.dcf.channelAccess.pendingQueue flowQueueingTime:histogram
field count 0
field mean -nan
field stddev nan
field min nan
field max nan
field sum 0
field sqrsum 0
attr interpolationmode none
attr recordingmode histogram
attr source queueingTime(demuxFlow(packetPulled))
attr title "flow queueing times"
attr unit s
bin	-inf	0
bin	0	0
bin	1	0
scalar Scenario.host[0].wlan[0].mac.dcf.channelAccess.pendingQueue incomingPackets:count 0
attr recordingmode count
attr source packetPushStarted
attr title "incoming packets, count"
attr unit pk
scalar Scenario.host[0].wlan[0].mac.dcf.channelAccess.pendingQueue incomingPacketLengths:sum 0
attr interpolationmode none
attr recordingmode sum
attr source packetLength(packetPushStarted)
attr title "incoming packet lengths, sum"
attr unit b
statistic Scenario.host[0].wlan[0].mac.dcf.channelAccess.pendingQueue incomingPacketLengths:histogram
field count 0
field mean -nan
field stddev nan
field min nan
field max nan
field sum 0
field sqrsum 0
attr interpolationmode none
attr recordingmode histogram
attr source packetLength(packetPushStarted)
attr title "incoming packet lengths"
attr unit b
bin	-inf	0
bin	0	0
bin	1	0
scalar Scenario.host[0].wlan[0].mac.dcf.channelAccess.pendingQueue droppedPacketsQueueOverflow:count 0
attr interpolationmode none
attr recordingmode count
attr source packetDropReasonIsQueueOverflow(packetDropped)
attr title "dropped packets: queue overflow, count"
attr unit pk
scalar Scenario.host[0].wlan[0].mac.dcf.channelAccess.pendingQueue droppedPacketLengthsQueueOverflow:sum 0
attr interpolationmode none
attr recordingmode sum
attr source packetLength(packetDropReasonIsQueueOverflow(packetDropped))
attr title "dropped packet lengths: queue overflow, sum"
attr unit b
par Scenario.host[0].wlan[0].mac.dcf.channelAccess.inProgressFrames typename "\"inet.linklayer.ieee80211.mac.queue.InProgressFrames\""
par Scenario.host[0].wlan[0].mac.dcf.channelAccess.inProgressFrames pendingQueueModule "\"^.pendingQueue\""
par Scenario.host[0].wlan[0].mac.dcf.channelAccess.inProgressFrames originatorMacDataServiceModule "\"^.^.originatorMacDataService\""
par Scenario.host[0].wlan[0].mac.dcf.channelAccess.inProgressFrames ackHandlerModule "\"^.^.ackHandler\""
statistic Scenario.host[0].wlan[0].mac.dcf.channelAccess.inProgressFrames queueingTime:histogram
field count 0
field mean -nan
field stddev nan
field min nan
field max nan
field sum 0
field sqrsum 0
attr interpolationmode none
attr recordingmode histogram
attr source queueingTime(packetDequeued)
attr title "queueing times"
bin	-inf	0
bin	0	0
bin	1	0
scalar Scenario.host[0].wlan[0].mac.dcf.channelAccess.inProgressFrames queueLength:max 0
attr autoWarmupFilter false
attr interpolationmode sample-hold
attr recordingmode max
attr source "warmup(count(packetEnqueued) - count(packetDequeued))"
attr title "queue length, max"
scalar Scenario.host[0].wlan[0].mac.dcf.channelAccess.inProgressFrames queueLength:timeavg 0
attr autoWarmupFilter false
attr interpolationmode sample-hold
attr recordingmode timeavg
attr source "warmup(count(packetEnqueued) - count(packetDequeued))"
attr title "queue length, timeavg"
par Scenario.host[0].wlan[0].mac.dcf.channelAccess.contention typename "\"inet.linklayer.ieee80211.mac.contention.Contention\""
par Scenario.host[0].wlan[0].mac.dcf.channelAccess.contention initialChannelBusy true
par Scenario.host[0].wlan[0].mac.dcf.channelAccess.contention backoffOptimization true
scalar Scenario.host[0].wlan[0].mac.dcf.channelAccess.contention channelAccessGranted:count 0
attr recordingmode count
attr title "channel access granted, count"
scalar Scenario.host[0].wlan[0].mac.dcf.channelAccess.contention stateChanged:count 2
attr enum IDLE,DEFER,IFS_AND_BACKOFF
attr interpolationmode none
attr recordingmode count
attr title "contention state changed, count"
attr type enum
par Scenario.host[0].wlan[0].mac.dcf.channelAccess typename "\"inet.linklayer.ieee80211.mac.channelaccess.Dcaf\""
par Scenario.host[0].wlan[0].mac.dcf.channelAccess difsn -1
par Scenario.host[0].wlan[0].mac.dcf.channelAccess cwMin 7
par Scenario.host[0].wlan[0].mac.dcf.channelAccess cwMax -1
par Scenario.host[0].wlan[0].mac.dcf.channelAccess rxModule "\"^.^.rx\""
scalar Scenario.host[0].wlan[0].mac.dcf.channelAccess channelOwnershipChanged:count 0
attr interpolationmode sample-hold
attr recordingmode count
attr title "channel ownership, count"
par Scenario.host[0].wlan[0].mac.dcf.originatorMacDataService.fragmentationPolicy typename "\"inet.linklayer.ieee80211.mac.fragmentation.BasicFragmentationPolicy\""
par Scenario.host[0].wlan[0].mac.dcf.originatorMacDataService.fragmentationPolicy fragmentationThreshold 1500B
attr unit B
par Scenario.host[0].wlan[0].mac.dcf.originatorMacDataService typename "\"inet.linklayer.ieee80211.mac.originator.OriginatorMacDataService\""
scalar Scenario.host[0].wlan[0].mac.dcf.originatorMacDataService packetAggregated:count 0
attr recordingmode count
attr title "packets aggregated, count"
scalar Scenario.host[0].wlan[0].mac.dcf.originatorMacDataService packetFragmented:count 0
attr recordingmode count
attr title "packets fragmented, count"
par Scenario.host[0].wlan[0].mac.dcf.recipientMacDataService typename "\"inet.linklayer.ieee80211.mac.recipient.RecipientMacDataService\""
scalar Scenario.host[0].wlan[0].mac.dcf.recipientMacDataService packetDeaggregated:count 0
attr recordingmode count
attr title "packets deaggregated, count"
scalar Scenario.host[0].wlan[0].mac.dcf.recipientMacDataService packetDefragmented:count 0
attr recordingmode count
attr title "packets defragmented, count"
scalar Scenario.host[0].wlan[0].mac.dcf.recipientMacDataService packetDropDuplicateDetected:count 0
attr interpolationmode none
attr recordingmode count
attr source packetDropReasonIsDuplicateDetected(packetDropped)
attr title "packet drops: duplicate detected, count"
scalar Scenario.host[0].wlan[0].mac.dcf.recipientMacDataService packetDropDuplicateDetected:sum(packetBytes) 0
attr interpolationmode none
attr recordingmode sum(packetBytes)
attr source packetDropReasonIsDuplicateDetected(packetDropped)
attr title "packet drops: duplicate detected, sum(packetBytes)"
par Scenario.host[0].wlan[0].mac.dcf.rateSelection typename "\"inet.linklayer.ieee80211.mac.rateselection.RateSelection\""
par Scenario.host[0].wlan[0].mac.dcf.rateSelection rateControlModule "\"^.rateControl\""
par Scenario.host[0].wlan[0].mac.dcf.rateSelection multicastFrameBitrate -1bps
attr unit bps
par Scenario.host[0].wlan[0].mac.dcf.rateSelection responseAckFrameBitrate -1bps
attr unit bps
par Scenario.host[0].wlan[0].mac.dcf.rateSelection responseCtsFrameBitrate -1bps
attr unit bps
par Scenario.host[0].wlan[0].mac.dcf.rateSelection dataFrameBitrate 2e+06bps
attr unit bps
par Scenario.host[0].wlan[0].mac.dcf.rateSelection dataFrameBandwidth "nan Hz"
attr unit Hz
par Scenario.host[0].wlan[0].mac.dcf.rateSelection dataFrameNumSpatialStreams -1
par Scenario.host[0].wlan[0].mac.dcf.rateSelection mgmtFrameBitrate -1bps
attr unit bps
par Scenario.host[0].wlan[0].mac.dcf.rateSelection controlFrameBitrate -1bps
attr unit bps
par Scenario.host[0].wlan[0].mac.dcf.recoveryProcedure typename "\"inet.linklayer.ieee80211.mac.originator.NonQosRecoveryProcedure\""
par Scenario.host[0].wlan[0].mac.dcf.recoveryProcedure cwCalculatorModule "\"^.channelAccess\""
par Scenario.host[0].wlan[0].mac.dcf.recoveryProcedure rtsPolicyModule "\"^.rtsPolicy\""
par Scenario.host[0].wlan[0].mac.dcf.recoveryProcedure shortRetryLimit 7
par Scenario.host[0].wlan[0].mac.dcf.recoveryProcedure longRetryLimit 4
scalar Scenario.host[0].wlan[0].mac.dcf.recoveryProcedure retryLimitReached:count 0
attr recordingmode count
attr title "retry limit reached, count"
par Scenario.host[0].wlan[0].mac.dcf.originatorProtectionMechanism typename "\"inet.linklayer.ieee80211.mac.protectionmechanism.OriginatorProtectionMechanism\""
par Scenario.host[0].wlan[0].mac.dcf.originatorProtectionMechanism rateSelectionModule "\"^.rateSelection\""
par Scenario.host[0].wlan[0].mac.dcf.ackHandler typename "\"inet.linklayer.ieee80211.mac.originator.AckHandler\""
par Scenario.host[0].wlan[0].mac.dcf.originatorAckPolicy typename "\"inet.linklayer.ieee80211.mac.originator.OriginatorAckPolicy\""
par Scenario.host[0].wlan[0].mac.dcf.originatorAckPolicy rateSelectionModule "\"^.rateSelection\""
par Scenario.host[0].wlan[0].mac.dcf.originatorAckPolicy ackTimeout -1s
attr unit s
par Scenario.host[0].wlan[0].mac.dcf.recipientAckPolicy typename "\"inet.linklayer.ieee80211.mac.recipient.RecipientAckPolicy\""
par Scenario.host[0].wlan[0].mac.dcf.recipientAckPolicy rateSelectionModule "\"^.rateSelection\""
par Scenario.host[0].wlan[0].mac.dcf.rtsPolicy typename "\"inet.linklayer.ieee80211.mac.originator.RtsPolicy\""
par Scenario.host[0].wlan[0].mac.dcf.rtsPolicy rateSelectionModule "\"^.rateSelection\""
par Scenario.host[0].wlan[0].mac.dcf.rtsPolicy ctsTimeout -1s
attr unit s
par Scenario.host[0].wlan[0].mac.dcf.rtsPolicy rtsThreshold 2346B
attr unit B
par Scenario.host[0].wlan[0].mac.dcf.ctsPolicy typename "\"inet.linklayer.ieee80211.mac.recipient.CtsPolicy\""
par Scenario.host[0].wlan[0].mac.dcf.ctsPolicy rxModule "\"^.^.rx\""
par Scenario.host[0].wlan[0].mac.dcf.ctsPolicy rateSelectionModule "\"^.rateSelection\""
par Scenario.host[0].wlan[0].mac.dcf typename "\"inet.linklayer.ieee80211.mac.coordinationfunction.Dcf\""
par Scenario.host[0].wlan[0].mac.dcf rxModule "\"^.rx\""
par Scenario.host[0].wlan[0].mac.dcf txModule "\"^.tx\""
scalar Scenario.host[0].wlan[0].mac.dcf frameSequenceFinished:count 0
attr recordingmode count
attr title "finished frame sequences, count"
statistic Scenario.host[0].wlan[0].mac.dcf frameSequenceDuration:histogram
field count 0
field mean -nan
field stddev nan
field min nan
field max nan
field sum 0
field sqrsum 0
attr recordingmode histogram
attr source frameSequenceDuration(frameSequenceFinished)
attr title "frame sequence durations"
bin	-inf	0
bin	0	0
bin	1	0
statistic Scenario.host[0].wlan[0].mac.dcf frameSequenceNumPackets:histogram
field count 0
field mean -nan
field stddev nan
field min nan
field max nan
field sum 0
field sqrsum 0
attr recordingmode histogram
attr source frameSequenceNumPackets(frameSequenceFinished)
attr title "frame sequences: number of packets"
bin	-inf	0
bin	0	0
bin	1	0
scalar Scenario.host[0].wlan[0].mac.dcf packetReceivedFromPeer:count 0
attr interpolationmode none
attr recordingmode count
attr title "packets received, count"
scalar Scenario.host[0].wlan[0].mac.dcf packetReceivedFromPeer:sum(packetBytes) 0
attr interpolationmode none
attr recordingmode sum(packetBytes)
attr title "packets received, sum(packetBytes)"
scalar Scenario.host[0].wlan[0].mac.dcf packetReceivedFromPeerUnicast:count 0
attr interpolationmode none
attr recordingmode count
attr source ieee80211Unicast(packetReceivedFromPeer)
attr title "packets received: unicast, count"
scalar Scenario.host[0].wlan[0].mac.dcf packetReceivedFromPeerUnicast:sum(packetBytes) 0
attr interpolationmode none
attr recordingmode sum(packetBytes)
attr source ieee80211Unicast(packetReceivedFromPeer)
attr title "packets received: unicast, sum(packetBytes)"
scalar Scenario.host[0].wlan[0].mac.dcf packetReceivedFromPeerMulticast:count 0
attr interpolationmode none
attr recordingmode count
attr source ieee80211Multicast(packetReceivedFromPeer)
attr title "packets received: multicast, count"
scalar Scenario.host[0].wlan[0].mac.dcf packetReceivedFromPeerMulticast:sum(packetBytes) 0
attr interpolationmode none
attr recordingmode sum(packetBytes)
attr source ieee80211Multicast(packetReceivedFromPeer)
attr title "packets received: multicast, sum(packetBytes)"
scalar Scenario.host[0].wlan[0].mac.dcf packetReceivedFromPeerBroadcast:count 0
attr interpolationmode none
attr recordingmode count
attr source ieee80211Broadcast(packetReceivedFromPeer)
attr title "packets received: broadcast, count"
scalar Scenario.host[0].wlan[0].mac.dcf packetReceivedFromPeerBroadcast:sum(packetBytes) 0
attr interpolationmode none
attr recordingmode sum(packetBytes)
attr source ieee80211Broadcast(packetReceivedFromPeer)
attr title "packets received: broadcast, sum(packetBytes)"
scalar Scenario.host[0].wlan[0].mac.dcf packetReceivedFromPeerWithRetry:count 0
attr interpolationmode none
attr recordingmode count
attr source ieee80211Retry(packetReceivedFromPeer)
attr title "packets received: with retry, count"
scalar Scenario.host[0].wlan[0].mac.dcf packetReceivedFromPeerWithRetry:sum(packetBytes) 0
attr interpolationmode none
attr recordingmode sum(packetBytes)
attr source ieee80211Retry(packetReceivedFromPeer)
attr title "packets received: with retry, sum(packetBytes)"
scalar Scenario.host[0].wlan[0].mac.dcf packetReceivedFromPeerWithoutRetry:count 0
attr interpolationmode none
attr recordingmode count
attr source ieee80211NotRetry(packetReceivedFromPeer)
attr title "packets received: without retry, count"
scalar Scenario.host[0].wlan[0].mac.dcf packetReceivedFromPeerWithoutRetry:sum(packetBytes) 0
attr interpolationmode none
attr recordingmode sum(packetBytes)
attr source ieee80211NotRetry(packetReceivedFromPeer)
attr title "packets received: without retry, sum(packetBytes)"
scalar Scenario.host[0].wlan[0].mac.dcf packetSentToPeer:count 0
attr interpolationmode none
attr recordingmode count
attr title "packets sent, count"
scalar Scenario.host[0].wlan[0].mac.dcf packetSentToPeer:sum(packetBytes) 0
attr interpolationmode none
attr recordingmode sum(packetBytes)
attr title "packets sent, sum(packetBytes)"
scalar Scenario.host[0].wlan[0].mac.dcf packetSentToPeerUnicast:count 0
attr interpolationmode none
attr recordingmode count
attr source ieee80211Unicast(packetSentToPeer)
attr title "packets sent: unicast, count"
scalar Scenario.host[0].wlan[0].mac.dcf packetSentToPeerUnicast:sum(packetBytes) 0
attr interpolationmode none
attr recordingmode sum(packetBytes)
attr source ieee80211Unicast(packetSentToPeer)
attr title "packets sent: unicast, sum(packetBytes)"
scalar Scenario.host[0].wlan[0].mac.dcf packetSentToPeerMulticast:count 0
attr interpolationmode none
attr recordingmode count
attr source ieee80211Multicast(packetSentToPeer)
attr title "packets sent: multicast, count"
scalar Scenario.host[0].wlan[0].mac.dcf packetSentToPeerMulticast:sum(packetBytes) 0
attr interpolationmode none
attr recordingmode sum(packetBytes)
attr source ieee80211Multicast(packetSentToPeer)
attr title "packets sent: multicast, sum(packetBytes)"
scalar Scenario.host[0].wlan[0].mac.dcf packetSentToPeerBroadcast:count 0
attr interpolationmode none
attr recordingmode count
attr source ieee80211Broadcast(packetSentToPeer)
attr title "packets sent: broadcast , count"
scalar Scenario.host[0].wlan[0].mac.dcf packetSentToPeerBroadcast:sum(packetBytes) 0
attr interpolationmode none
attr recordingmode sum(packetBytes)
attr source ieee80211Broadcast(packetSentToPeer)
attr title "packets sent: broadcast , sum(packetBytes)"
scalar Scenario.host[0].wlan[0].mac.dcf packetSentToPeerWithRetry:count 0
attr interpolationmode none
attr recordingmode count
attr source ieee80211Retry(packetSentToPeer)
attr title "packets sent: with retry, count"
scalar Scenario.host[0].wlan[0].mac.dcf packetSentToPeerWithRetry:sum(packetBytes) 0
attr interpolationmode none
attr recordingmode sum(packetBytes)
attr source ieee80211Retry(packetSentToPeer)
attr title "packets sent: with retry, sum(packetBytes)"
scalar Scenario.host[0].wlan[0].mac.dcf packetSentToPeerWithoutRetry:count 0
attr interpolationmode none
attr recordingmode count
attr source ieee80211NotRetry(packetSentToPeer)
attr title "packets sent: without retry, count"
scalar Scenario.host[0].wlan[0].mac.dcf packetSentToPeerWithoutRetry:sum(packetBytes) 0
attr interpolationmode none
attr recordingmode sum(packetBytes)
attr source ieee80211NotRetry(packetSentToPeer)
attr title "packets sent: without retry, sum(packetBytes)"
scalar Scenario.host[0].wlan[0].mac.dcf packetDrop:count 0
attr interpolationmode none
attr recordingmode count
attr source packetDropped
attr title "packet drops, count"
scalar Scenario.host[0].wlan[0].mac.dcf packetDrop:sum(packetBytes) 0
attr interpolationmode none
attr recordingmode sum(packetBytes)
attr source packetDropped
attr title "packet drops, sum(packetBytes)"
scalar Scenario.host[0].wlan[0].mac.dcf packetDropNotAddressedToUs:count 0
attr interpolationmode none
attr recordingmode count
attr source packetDropReasonIsNotAddressedToUs(packetDropped)
attr title "packet drops: not addressed to us, count"
scalar Scenario.host[0].wlan[0].mac.dcf packetDropNotAddressedToUs:sum(packetBytes) 0
attr interpolationmode none
attr recordingmode sum(packetBytes)
attr source packetDropReasonIsNotAddressedToUs(packetDropped)
attr title "packet drops: not addressed to us, sum(packetBytes)"
scalar Scenario.host[0].wlan[0].mac.dcf packetDropQueueOverflow:count 0
attr interpolationmode none
attr recordingmode count
attr source packetDropReasonIsQueueOverflow(packetDropped)
attr title "packet drops: queue overflow, count"
scalar Scenario.host[0].wlan[0].mac.dcf packetDropQueueOverflow:sum(packetBytes) 0
attr interpolationmode none
attr recordingmode sum(packetBytes)
attr source packetDropReasonIsQueueOverflow(packetDropped)
attr title "packet drops: queue overflow, sum(packetBytes)"
scalar Scenario.host[0].wlan[0].mac.dcf packetDropRetryLimitReached:count 0
attr interpolationmode none
attr recordingmode count
attr source packetDropReasonIsRetryLimitReached(packetDropped)
attr title "packet drops: retry limit reached, count"
scalar Scenario.host[0].wlan[0].mac.dcf packetDropRetryLimitReached:sum(packetBytes) 0
attr interpolationmode none
attr recordingmode sum(packetBytes)
attr source packetDropReasonIsRetryLimitReached(packetDropped)
attr title "packet drops: retry limit reached, sum(packetBytes)"
scalar Scenario.host[0].wlan[0].mac.dcf linkBroken:count 0
attr interpolationmode none
attr recordingmode count
attr title "link breaks, count"
par Scenario.host[0].wlan[0].mac.ds typename "\"inet.linklayer.ieee80211.mac.Ds\""
par Scenario.host[0].wlan[0].mac.ds mibModule "\"Scenario.host[0].wlan[0].mib\""
par Scenario.host[0].wlan[0].mac.rx typename "\"inet.linklayer.ieee80211.mac.Rx\""
par Scenario.host[0].wlan[0].mac.tx typename "\"inet.linklayer.ieee80211.mac.Tx\""
par Scenario.host[0].wlan[0].mac.tx rxModule "\"^.rx\""
par Scenario.host[0].wlan[0].mac typename "\"inet.linklayer.ieee80211.mac.Ieee80211Mac\""
par Scenario.host[0].wlan[0].mac interfaceTableModule "\"Scenario.host[0].interfaceTable\""
par Scenario.host[0].wlan[0].mac mibModule "\"Scenario.host[0].wlan[0].mib\""
par Scenario.host[0].wlan[0].mac modeSet "\"g(mixed)\""
attr enum a,b,g(erp),g(mixed),n(mixed-2.4Ghz),p,ac
par Scenario.host[0].wlan[0].mac fcsMode "\"declared\""
attr enum declared,computed
par Scenario.host[0].wlan[0].mac initialRadioMode "\"receiver\""
attr enum off,sleep,receiver,transmitter,transceiver
par Scenario.host[0].wlan[0].mac mtu 2304B
attr unit B
par Scenario.host[0].wlan[0].mac qosStation false
scalar Scenario.host[0].wlan[0].mac packetReceivedFromLower:count 0
attr interpolationmode none
attr recordingmode count
attr title "packets received from lower layer, count"
scalar Scenario.host[0].wlan[0].mac packetReceivedFromLower:sum(packetBytes) 0
attr interpolationmode none
attr recordingmode sum(packetBytes)
attr title "packets received from lower layer, sum(packetBytes)"
scalar Scenario.host[0].wlan[0].mac packetSentToLower:count 0
attr interpolationmode none
attr recordingmode count
attr title "packets sent to lower layer, count"
scalar Scenario.host[0].wlan[0].mac packetSentToLower:sum(packetBytes) 0
attr interpolationmode none
attr recordingmode sum(packetBytes)
attr title "packets sent to lower layer, sum(packetBytes)"
[...]
bin	-0.08	0
bin	-0.06	0
bin	-0.04	0
bin	-0.02	0
bin	0	1
bin	0.02	0
bin	0.04	0
bin	0.06	0
bin	0.08	0
bin	0.1	0
bin	0.12	0
bin	0.14	0
bin	0.16	0
bin	0.18	0
bin	0.2	0
bin	0.22	0
bin	0.24	0
bin	0.26	0
bin	0.28	0
bin	0.3	0
bin	0.32	0
bin	0.34	0
bin	0.36	0
bin	0.38	0
bin	0.4	0
bin	0.42	0
bin	0.44	0
bin	0.46	0
bin	0.48	0
bin	0.5	0
scalar Scenario.host[2].wlan[0].radio radioMode:count 3
attr interpolationmode sample-hold
attr recordingmode count
attr source radioModeChanged
attr title "Radio mode, count"
scalar Scenario.host[2].wlan[0].radio receptionState:count 1
attr interpolationmode sample-hold
attr recordingmode count
attr source receptionStateChanged
attr title "Radio reception state, count"
scalar Scenario.host[2].wlan[0].radio transmissionState:count 0
attr interpolationmode sample-hold
attr recordingmode count
attr source transmissionStateChanged
attr title "Radio transmission state, count"
statistic Scenario.host[2].wlan[0].radio minSnir:histogram
field count 0
field mean -nan
field stddev nan
field min nan
field max nan
field sum 0
field sqrsum 0
attr recordingmode histogram
attr source minimumSnir(packetSentToUpper)
attr title "Min SNIR"
bin	-inf	0
bin	0	0
bin	1	0
statistic Scenario.host[2].wlan[0].radio packetErrorRate:histogram
field count 0
field mean -nan
field stddev nan
field min nan
field max nan
field sum 0
field sqrsum 0
attr recordingmode histogram
attr source packetErrorRate(packetSentToUpper)
attr title "Packet error rate"
bin	-inf	0
bin	0	0
bin	1	0
statistic Scenario.host[2].wlan[0].radio bitErrorRate:histogram
field count 0
field mean -nan
field stddev nan
field min nan
field max nan
field sum 0
field sqrsum 0
attr recordingmode histogram
attr source bitErrorRate(packetSentToUpper)
attr title "Bit error rate"
bin	-inf	0
bin	0	0
bin	1	0
statistic Scenario.host[2].wlan[0].radio symbolErrorRate:histogram
field count 0
field mean -nan
field stddev nan
field min nan
field max nan
field sum 0
field sqrsum 0
attr recordingmode histogram
attr source symbolErrorRate(packetSentToUpper)
attr title "Symbol error rate"
bin	-inf	0
bin	0	0
bin	1	0
par Scenario.host[2].wlan[0] typename "\"inet.linklayer.ieee80211.Ieee80211Interface\""
par Scenario.host[2].wlan[0] displayStringTextFormat "\"%a (%i)\\n%m\""
par Scenario.host[2].wlan[0] recordPcap false
par Scenario.host[2].wlan[0] numPcapRecorders 0
par Scenario.host[2].wlan[0] interfaceTableModule "\"Scenario.host[2].interfaceTable\""
par Scenario.host[2].wlan[0] energySourceModule "\"\""
par Scenario.host[2].wlan[0] opMode "\"g(mixed)\""
attr enum a,b,g(erp),g(mixed),n(mixed-2.4Ghz),p,ac
par Scenario.host[2].wlan[0] address "\"0A-AA-00-00-00-03\""
attr mutable ""
par Scenario.host[2].wlan[0] protocol "\"\""
par Scenario.host[2].wlan[0] bitrate 2e+06bps
attr unit bps
scalar Scenario.host[2].wlan[0] packetDropInterfaceDown:count 0
attr interpolationmode none
attr recordingmode count
attr source packetDropReasonIsInterfaceDown(packetDropped)
attr title "packet drops: interface down, count"
scalar Scenario.host[2].wlan[0] packetDropInterfaceDown:sum(packetBytes) 0
attr interpolationmode none
attr recordingmode sum(packetBytes)
attr source packetDropReasonIsInterfaceDown(packetDropped)
attr title "packet drops: interface down, sum(packetBytes)"
scalar Scenario.host[2].wlan[0] packetDropNoCarrier:count 0
attr interpolationmode none
attr recordingmode count
attr source packetDropReasonIsNoCarrier(packetDropped)
attr title "packet drops: no carrier, count"
scalar Scenario.host[2].wlan[0] packetDropNoCarrier:sum(packetBytes) 0
attr interpolationmode none
attr recordingmode sum(packetBytes)
attr source packetDropReasonIsNoCarrier(packetDropped)
attr title "packet drops: no carrier, sum(packetBytes)"
par Scenario.host[2].ipv4.transportIn.channel typename "\"ned.IdealChannel\""
par Scenario.host[2].ipv4.up.out[0].channel typename "\"ned.IdealChannel\""
par Scenario.host[2].ipv4.lp.out[2].channel typename "\"ned.IdealChannel\""
par Scenario.host[2].ipv4.ifIn.channel typename "\"ned.IdealChannel\""
par Scenario.host[2].ipv4.configurator typename "\"inet.networklayer.configurator.ipv4.HostAutoConfigurator\""
par Scenario.host[2].ipv4.configurator interfaceTableModule "\"Scenario.host[2].interfaceTable\""
par Scenario.host[2].ipv4.configurator interfaces "\"wlan0\""
par Scenario.host[2].ipv4.configurator addressBase "\"10.0.0.0\""
par Scenario.host[2].ipv4.configurator netmask "\"255.0.0.0\""
par Scenario.host[2].ipv4.configurator mcastGroups "\"\""
par Scenario.host[2].ipv4.routingTable typename "\"inet.networklayer.ipv4.Ipv4RoutingTable\""
par Scenario.host[2].ipv4.routingTable interfaceTableModule "\"Scenario.host[2].interfaceTable\""
par Scenario.host[2].ipv4.routingTable routerId "\"auto\""
par Scenario.host[2].ipv4.routingTable netmaskRoutes "\"*\""
par Scenario.host[2].ipv4.routingTable forwarding true
par Scenario.host[2].ipv4.routingTable multicastForwarding false
par Scenario.host[2].ipv4.routingTable useAdminDist false
par Scenario.host[2].ipv4.routingTable routingFile "\"\""
par Scenario.host[2].ipv4.natTable typename "\"inet.networklayer.ipv4.Ipv4NatTable\""
par Scenario.host[2].ipv4.natTable networkProtocolModule "\"^.ip\""
par Scenario.host[2].ipv4.natTable config "<config/> at content:1"
par Scenario.host[2].ipv4.up typename "\"inet.common.MessageDispatcher\""
par Scenario.host[2].ipv4.up displayStringTextFormat "\"processed %p pk (%l)\""
par Scenario.host[2].ipv4.up forwardServiceRegistration true
par Scenario.host[2].ipv4.up forwardProtocolRegistration true
par Scenario.host[2].ipv4.igmp typename "\"inet.networklayer.ipv4.Igmpv2\""
par Scenario.host[2].ipv4.igmp interfaceTableModule "\"Scenario.host[2].interfaceTable\""
par Scenario.host[2].ipv4.igmp routingTableModule "\"Scenario.host[2].ipv4.routingTable\""
par Scenario.host[2].ipv4.igmp crcMode "\"declared\""
attr enum declared,computed
par Scenario.host[2].ipv4.igmp enabled true
par Scenario.host[2].ipv4.igmp robustnessVariable 2
par Scenario.host[2].ipv4.igmp queryInterval 125s
attr unit s
par Scenario.host[2].ipv4.igmp queryResponseInterval 10s
attr unit s
par Scenario.host[2].ipv4.igmp groupMembershipInterval 260s
attr unit s
par Scenario.host[2].ipv4.igmp otherQuerierPresentInterval 255s
attr unit s
par Scenario.host[2].ipv4.igmp startupQueryInterval 31.25s
attr unit s
par Scenario.host[2].ipv4.igmp startupQueryCount 2
par Scenario.host[2].ipv4.igmp lastMemberQueryInterval 1s
attr unit s
par Scenario.host[2].ipv4.igmp lastMemberQueryCount 2
par Scenario.host[2].ipv4.igmp unsolicitedReportInterval 10s
attr unit s
par Scenario.host[2].ipv4.icmp typename "\"inet.networklayer.ipv4.Icmp\""
par Scenario.host[2].ipv4.icmp interfaceTableModule "\"Scenario.host[2].interfaceTable\""
par Scenario.host[2].ipv4.icmp routingTableModule "\"Scenario.host[2].ipv4.routingTable\""
par Scenario.host[2].ipv4.icmp crcMode "\"declared\""
attr enum declared,computed
attr mutable ""
par Scenario.host[2].ipv4.icmp quoteLength 8B
attr mutable ""
attr unit B
par Scenario.host[2].ipv4.mp typename "\"inet.common.MessageDispatcher\""
par Scenario.host[2].ipv4.mp displayStringTextFormat "\"processed %p pk (%l)\""
par Scenario.host[2].ipv4.mp forwardServiceRegistration true
par Scenario.host[2].ipv4.mp forwardProtocolRegistration true
par Scenario.host[2].ipv4.ip typename "\"inet.networklayer.ipv4.Ipv4\""
par Scenario.host[2].ipv4.ip interfaceTableModule "\"Scenario.host[2].interfaceTable\""
par Scenario.host[2].ipv4.ip routingTableModule "\"Scenario.host[2].ipv4.routingTable\""
par Scenario.host[2].ipv4.ip arpModule "\"Scenario.host[2].ipv4.arp\""
par Scenario.host[2].ipv4.ip icmpModule "\"Scenario.host[2].ipv4.icmp\""
par Scenario.host[2].ipv4.ip crcMode "\"declared\""
attr enum declared,computed
par Scenario.host[2].ipv4.ip timeToLive 32
par Scenario.host[2].ipv4.ip multicastTimeToLive 32
par Scenario.host[2].ipv4.ip fragmentTimeout 60s
attr unit s
par Scenario.host[2].ipv4.ip limitedBroadcast false
par Scenario.host[2].ipv4.ip directBroadcastInterfaces "\"\""
scalar Scenario.host[2].ipv4.ip packetDropAddressResolutionFailed:count 0
attr interpolationmode none
attr recordingmode count
attr source packetDropReasonIsAddressResolutionFailed(packetDropped)
attr title "packet drop: address resolution failed, count"
scalar Scenario.host[2].ipv4.ip packetDropAddressResolutionFailed:sum(packetBytes) 0
attr interpolationmode none
attr recordingmode sum(packetBytes)
attr source packetDropReasonIsAddressResolutionFailed(packetDropped)
attr title "packet drop: address resolution failed, sum(packetBytes)"
scalar Scenario.host[2].ipv4.ip packetDropHopLimitReached:count 0
attr interpolationmode none
attr recordingmode count
attr source packetDropReasonIsHopLimitReached(packetDropped)
attr title "packet drop: hop limit reached, count"
scalar Scenario.host[2].ipv4.ip packetDropHopLimitReached:sum(packetBytes) 0
attr interpolationmode none
attr recordingmode sum(packetBytes)
attr source packetDropReasonIsHopLimitReached(packetDropped)
attr title "packet drop: hop limit reached, sum(packetBytes)"
scalar Scenario.host[2].ipv4.ip packetDropForwardingDisabled:count 0
attr interpolationmode none
attr recordingmode count
attr source packetDropReasonIsForwardingDisabled(packetDropped)
attr title "packet drop: forwarding disabled, count"
scalar Scenario.host[2].ipv4.ip packetDropForwardingDisabled:sum(packetBytes) 0
attr interpolationmode none
attr recordingmode sum(packetBytes)
attr source packetDropReasonIsForwardingDisabled(packetDropped)
attr title "packet drop: forwarding disabled, sum(packetBytes)"
scalar Scenario.host[2].ipv4.ip packetDropNoInterfaceFound:count 0
attr interpolationmode none
attr recordingmode count
attr source packetDropReasonIsNoInterfaceFound(packetDropped)
attr title "packet drop: no interface found, count"
scalar Scenario.host[2].ipv4.ip packetDropNoInterfaceFound:sum(packetBytes) 0
attr interpolationmode none
attr recordingmode sum(packetBytes)
attr source packetDropReasonIsNoInterfaceFound(packetDropped)
attr title "packet drop: no interface found, sum(packetBytes)"
scalar Scenario.host[2].ipv4.ip packetDropNoRouteFound:count 0
attr interpolationmode none
attr recordingmode count
attr source packetDropReasonIsNoRouteFound(packetDropped)
attr title "packet drop: no route found, count"
scalar Scenario.host[2].ipv4.ip packetDropNoRouteFound:sum(packetBytes) 0
attr interpolationmode none
attr recordingmode sum(packetBytes)
attr source packetDropReasonIsNoRouteFound(packetDropped)
attr title "packet drop: no route found, sum(packetBytes)"
scalar Scenario.host[2].ipv4.ip packetDropUndefined:count 0
attr interpolationmode none
attr recordingmode count
attr source packetDropReasonIsUndefined(packetDropped)
attr title "packet drop: undefined, count"
scalar Scenario.host[2].ipv4.ip packetDropUndefined:sum(packetBytes) 0
attr interpolationmode none
attr recordingmode sum(packetBytes)
attr source packetDropReasonIsUndefined(packetDropped)
attr title "packet drop: undefined, sum(packetBytes)"
par Scenario.host[2].ipv4.arp typename "\"inet.networklayer.arp.ipv4.Arp\""
par Scenario.host[2].ipv4.arp interfaceTableModule "\"Scenario.host[2].interfaceTable\""
par Scenario.host[2].ipv4.arp routingTableModule "\"Scenario.host[2].ipv4.routingTable\""
par Scenario.host[2].ipv4.arp retryTimeout 1s
attr unit s
par Scenario.host[2].ipv4.arp retryCount 3
par Scenario.host[2].ipv4.arp cacheTimeout 120s
attr unit s
par Scenario.host[2].ipv4.arp proxyArpInterfaces "\"\""
scalar Scenario.host[2].ipv4.arp arpResolutionFailed:count 0
attr recordingmode count
attr title "ARP failed resolutions, count"
scalar Scenario.host[2].ipv4.arp arpResolutionCompleted:count 0
attr recordingmode count
attr title "ARP completed resolutions, count"
scalar Scenario.host[2].ipv4.arp arpResolutionInitiated:count 0
attr recordingmode count
attr title "ARP initiated resolutions, count"
scalar Scenario.host[2].ipv4.arp arpReplySent:count 0
attr recordingmode count
attr source arpReplySent
attr title "ARP replies sent, count"
scalar Scenario.host[2].ipv4.arp arpReplySent:sum(packetBytes) 0
attr recordingmode sum(packetBytes)
attr source arpReplySent
attr title "ARP replies sent, sum(packetBytes)"
scalar Scenario.host[2].ipv4.arp arpRequestSent:count 0
attr recordingmode count
attr source arpRequestSent
attr title "ARP request sent, count"
scalar Scenario.host[2].ipv4.arp arpRequestSent:sum(packetBytes) 0
attr recordingmode sum(packetBytes)
attr source arpRequestSent
attr title "ARP request sent, sum(packetBytes)"
par Scenario.host[2].ipv4.lp typename "\"inet.common.MessageDispatcher\""
par Scenario.host[2].ipv4.lp displayStringTextFormat "\"processed %p pk (%l)\""
par Scenario.host[2].ipv4.lp forwardServiceRegistration true
par Scenario.host[2].ipv4.lp forwardProtocolRegistration true
par Scenario.host[2].ipv4 typename "\"inet.networklayer.ipv4.Ipv4NetworkLayer\""
par Scenario.host[2].ipv4 forwarding true
par Scenario.host[2].ipv4 multicastForwarding false
par Scenario.host[2].ipv4 interfaceTableModule "\"Scenario.host[2].interfaceTable\""
par Scenario.host[2].ipv4 displayStringTextFormat "\"%i\""
par Scenario.host[2].nl typename "\"inet.common.MessageDispatcher\""
par Scenario.host[2].nl displayStringTextFormat "\"processed %p pk (%l)\""
par Scenario.host[2].nl forwardServiceRegistration true
par Scenario.host[2].nl forwardProtocolRegistration true
par Scenario.host[2].udp typename "\"inet.transportlayer.udp.Udp\""
par Scenario.host[2].udp interfaceTableModule "\"Scenario.host[2].interfaceTable\""
par Scenario.host[2].udp icmpModule "\"^.ipv4.icmp\""
par Scenario.host[2].udp icmpv6Module "\"^.ipv6.icmpv6\""
par Scenario.host[2].udp crcMode "\"declared\""
attr enum disabled,declared,computed
par Scenario.host[2].udp defaultMulticastLoop true
scalar Scenario.host[2].udp packetReceived:count 0
attr interpolationmode none
attr recordingmode count
attr source packetReceived
attr title "packets received, count"
scalar Scenario.host[2].udp packetReceived:sum(packetBytes) 0
attr interpolationmode none
attr recordingmode sum(packetBytes)
attr source packetReceived
attr title "packets received, sum(packetBytes)"
scalar Scenario.host[2].udp packetSent:count 0
attr interpolationmode none
attr recordingmode count
attr source packetSent
attr title "packets sent, count"
scalar Scenario.host[2].udp packetSent:sum(packetBytes) 0
attr interpolationmode none
attr recordingmode sum(packetBytes)
attr source packetSent
attr title "packets sent, sum(packetBytes)"
scalar Scenario.host[2].udp passedUpPk:count 0
attr interpolationmode none
attr recordingmode count
attr source packetSentToUpper
attr title "packets passed up, count"
scalar Scenario.host[2].udp droppedPkWrongPort:count 0
attr interpolationmode none
attr recordingmode count
attr source packetDropReasonIsNoPortFound(packetDropped)
attr title "packets dropped (wrong port), count"
scalar Scenario.host[2].udp droppedPkBadChecksum:count 0
attr interpolationmode none
attr recordingmode count
attr source packetDropReasonIsIncorrectlyReceived(packetDropped)
attr title "packets dropped (checksum error), count"
par Scenario.host[2].tcp typename "\"inet.transportlayer.tcp.Tcp\""
par Scenario.host[2].tcp crcMode "\"declared\""
attr enum declared,computed
par Scenario.host[2].tcp advertisedWindow 7504
par Scenario.host[2].tcp delayedAcksEnabled false
par Scenario.host[2].tcp nagleEnabled true
par Scenario.host[2].tcp limitedTransmitEnabled false
par Scenario.host[2].tcp increasedIWEnabled false
par Scenario.host[2].tcp sackSupport false
par Scenario.host[2].tcp windowScalingSupport false
par Scenario.host[2].tcp windowScalingFactor -1
par Scenario.host[2].tcp timestampSupport false
par Scenario.host[2].tcp mss 536
par Scenario.host[2].tcp msl 120s
attr unit s
par Scenario.host[2].tcp tcpAlgorithmClass "\"TcpReno\""
par Scenario.host[2].tcp useDataNotification false
par Scenario.host[2].tcp dupthresh 3
par Scenario.host[2].tcp initialSsthresh 4294967295
par Scenario.host[2].tcp stopOperationExtraTime 0s
attr unit s
par Scenario.host[2].tcp stopOperationTimeout 2s
attr unit s
par Scenario.host[2].tcp ecnWillingness false
par Scenario.host[2].tcp dctcpGamma 0.0625
par Scenario.host[2].tn typename "\"inet.common.MessageDispatcher\""
par Scenario.host[2].tn displayStringTextFormat "\"processed %p pk (%l)\""
par Scenario.host[2].tn forwardServiceRegistration true
par Scenario.host[2].tn forwardProtocolRegistration true
par Scenario.host[2].app[0] typename "\"inet.applications.udpapp.UdpBasicApp\""
par Scenario.host[2].app[0] interfaceTableModule "\"Scenario.host[2].interfaceTable\""
par Scenario.host[2].app[0] clockModule "\"\""
par Scenario.host[2].app[0] localPort 9001
par Scenario.host[2].app[0] destAddresses "\"host[0]\""
par Scenario.host[2].app[0] localAddress "\"\""
par Scenario.host[2].app[0] packetName "\"UdpBasicAppData\""
par Scenario.host[2].app[0] destPort 9001
par Scenario.host[2].app[0] messageLength 100B
attr unit B
par Scenario.host[2].app[0] startTime 27.8355s
attr unit s
par Scenario.host[2].app[0] stopTime -1s
attr unit s
par Scenario.host[2].app[0] sendInterval "uniform(10s, 30s)"
attr unit s
par Scenario.host[2].app[0] timeToLive -1
par Scenario.host[2].app[0] dontFragment false
par Scenario.host[2].app[0] dscp -1
par Scenario.host[2].app[0] tos -1
par Scenario.host[2].app[0] multicastInterface "\"\""
par Scenario.host[2].app[0] receiveBroadcast false
par Scenario.host[2].app[0] joinLocalMulticastGroups false
par Scenario.host[2].app[0] stopOperationExtraTime -1s
attr unit s
par Scenario.host[2].app[0] stopOperationTimeout 2s
attr unit s
scalar Scenario.host[2].app[0] "packets sent" 0
scalar Scenario.host[2].app[0] "packets received" 0
scalar Scenario.host[2].app[0] packetReceived:count 0
attr interpolationmode none
attr recordingmode count
attr source packetReceived
attr title "packets received, count"
scalar Scenario.host[2].app[0] packetReceived:sum(packetBytes) 0
attr interpolationmode none
attr recordingmode sum(packetBytes)
attr source packetReceived
attr title "packets received, sum(packetBytes)"
statistic Scenario.host[2].app[0] rcvdPkLifetime:stats
field count 0
field mean -nan
field stddev nan
field min nan
field max nan
field sum 0
field sqrsum 0
attr interpolationmode none
attr recordingmode stats
attr source dataAge(packetReceived)
attr title "received packet lifetime"
attr unit s
scalar Scenario.host[2].app[0] packetSent:count 0
attr interpolationmode none
attr recordingmode count
attr source packetSent
attr title "packets sent, count"
scalar Scenario.host[2].app[0] packetSent:sum(packetBytes) 0
attr interpolationmode none
attr recordingmode sum(packetBytes)
attr source packetSent
attr title "packets sent, sum(packetBytes)"
par Scenario.host[2].at typename "\"inet.common.MessageDispatcher\""
par Scenario.host[2].at displayStringTextFormat "\"processed %p pk (%l)\""
par Scenario.host[2].at forwardServiceRegistration true
par Scenario.host[2].at forwardProtocolRegistration true
par Scenario.host[2] typename "\"inet.node.inet.AdhocHost\""
par Scenario.host[2] hasStatus false
par Scenario.host[2] osgModel "\"\""
par Scenario.host[2] osgModelColor "\"\""
par Scenario.host[2] canvasImage "\"\""
par Scenario.host[2] canvasImageColor "\"\""
par Scenario.host[2] recordPcap false
par Scenario.host[2] numPcapRecorders 0
par Scenario.host[2] numLoInterfaces 1
par Scenario.host[2] numWlanInterfaces 1
par Scenario.host[2] numEthInterfaces 0
par Scenario.host[2] numPppInterfaces 0
par Scenario.host[2] numTunInterfaces 0
par Scenario.host[2] numVirtInterfaces 0
par Scenario.host[2] fcsMode "\"declared\""
attr enum declared,computed
par Scenario.host[2] hasIpv4 true
par Scenario.host[2] hasIpv6 false
par Scenario.host[2] hasGn false
par Scenario.host[2] forwarding true
par Scenario.host[2] multicastForwarding false
par Scenario.host[2] hasUdp true
par Scenario.host[2] hasTcp true
par Scenario.host[2] hasSctp false
par Scenario.host[2] numApps 1
par Scenario typename "\"inet.examples.adhoc.hostautoconf.Scenario\""
par Scenario hosts 3

