version 3
run WiredDHCP-0-20251121-23:41:54-261221
attr configname WiredDHCP
attr datetime 20251121-23:41:54
attr datetimef 20251121-234154
attr experiment WiredDHCP
attr inifile omnetpp.ini
attr iterationvars ""
attr iterationvarsd ""
attr iterationvarsf ""
attr measurement ""
attr network WiredNetWithDHCP
attr processid 261221
attr repetition 0
attr replication #0
attr resultdir results
attr runnumber 0
attr seedset 0
config image-path ../../images
config description "Hosts configured via DHCP"
config network WiredNetWithDHCP
config *.numHosts 10
config **.client[*].numApps 1
config **.client[*].app[0].typename DhcpClient
config **.client[*].app[0].startTime "uniform(0s, 1s)"
config **.server.numApps 1
config **.server.app[0].typename DhcpServer
config **.server.app[0].numReservedAddresses 100
config **.server.app[0].maxNumClients 100
config **.server.app[0].gateway "\"192.168.1.1\""
config **.server.app[0].leaseTime 1000s
config sim-time-limit 100d

par WiredNetWithDHCP.server.ethg$o[0].channel typename "\"inet.node.ethernet.Eth10M\""
par WiredNetWithDHCP.server.ethg$o[0].channel disabled false
attr mutable ""
par WiredNetWithDHCP.server.ethg$o[0].channel delay 5e-08s
attr mutable ""
attr unit s
par WiredNetWithDHCP.server.ethg$o[0].channel datarate 1e+07bps
attr mutable ""
attr unit bps
par WiredNetWithDHCP.server.ethg$o[0].channel ber 0
attr mutable ""
par WiredNetWithDHCP.server.ethg$o[0].channel per 0
attr mutable ""
par WiredNetWithDHCP.server.ethg$o[0].channel length 10m
attr unit m
par WiredNetWithDHCP.switch.ethg$o[0].channel typename "\"inet.node.ethernet.Eth10M\""
par WiredNetWithDHCP.switch.ethg$o[0].channel disabled false
attr mutable ""
par WiredNetWithDHCP.switch.ethg$o[0].channel delay 5e-08s
attr mutable ""
attr unit s
par WiredNetWithDHCP.switch.ethg$o[0].channel datarate 1e+07bps
attr mutable ""
attr unit bps
par WiredNetWithDHCP.switch.ethg$o[0].channel ber 0
attr mutable ""
par WiredNetWithDHCP.switch.ethg$o[0].channel per 0
attr mutable ""
par WiredNetWithDHCP.switch.ethg$o[0].channel length 10m
attr unit m
par WiredNetWithDHCP.client[0].ethg$o[0].channel typename "\"inet.node.ethernet.Eth10M\""
par WiredNetWithDHCP.client[0].ethg$o[0].channel disabled false
attr mutable ""
par WiredNetWithDHCP.client[0].ethg$o[0].channel delay 5e-08s
attr mutable ""
attr unit s
par WiredNetWithDHCP.client[0].ethg$o[0].channel datarate 1e+07bps
attr mutable ""
attr unit bps
par WiredNetWithDHCP.client[0].ethg$o[0].channel ber 0
attr mutable ""
par WiredNetWithDHCP.client[0].ethg$o[0].channel per 0
attr mutable ""
par WiredNetWithDHCP.client[0].ethg$o[0].channel length 10m
attr unit m
par WiredNetWithDHCP.switch.ethg$o[1].channel typename "\"inet.node.ethernet.Eth10M\""
par WiredNetWithDHCP.switch.ethg$o[1].channel disabled false
attr mutable ""
par WiredNetWithDHCP.switch.ethg$o[1].channel delay 5e-08s
attr mutable ""
attr unit s
par WiredNetWithDHCP.switch.ethg$o[1].channel datarate 1e+07bps
attr mutable ""
attr unit bps
par WiredNetWithDHCP.switch.ethg$o[1].channel ber 0
attr mutable ""
par WiredNetWithDHCP.switch.ethg$o[1].channel per 0
attr mutable ""
par WiredNetWithDHCP.switch.ethg$o[1].channel length 10m
attr unit m
par WiredNetWithDHCP.client[1].ethg$o[0].channel typename "\"inet.node.ethernet.Eth10M\""
par WiredNetWithDHCP.client[1].ethg$o[0].channel disabled false
attr mutable ""
par WiredNetWithDHCP.client[1].ethg$o[0].channel delay 5e-08s
attr mutable ""
attr unit s
par WiredNetWithDHCP.client[1].ethg$o[0].channel datarate 1e+07bps
attr mutable ""
attr unit bps
par WiredNetWithDHCP.client[1].ethg$o[0].channel ber 0
attr mutable ""
par WiredNetWithDHCP.client[1].ethg$o[0].channel per 0
attr mutable ""
par WiredNetWithDHCP.client[1].ethg$o[0].channel length 10m
attr unit m
par WiredNetWithDHCP.switch.ethg$o[2].channel typename "\"inet.node.ethernet.Eth10M\""
par WiredNetWithDHCP.switch.ethg$o[2].channel disabled false
attr mutable ""
par WiredNetWithDHCP.switch.ethg$o[2].channel delay 5e-08s
attr mutable ""
attr unit s
par WiredNetWithDHCP.switch.ethg$o[2].channel datarate 1e+07bps
attr mutable ""
attr unit bps
par WiredNetWithDHCP.switch.ethg$o[2].channel ber 0
attr mutable ""
par WiredNetWithDHCP.switch.ethg$o[2].channel per 0
attr mutable ""
par WiredNetWithDHCP.switch.ethg$o[2].channel length 10m
attr unit m
par WiredNetWithDHCP.client[2].ethg$o[0].channel typename "\"inet.node.ethernet.Eth10M\""
par WiredNetWithDHCP.client[2].ethg$o[0].channel disabled false
attr mutable ""
par WiredNetWithDHCP.client[2].ethg$o[0].channel delay 5e-08s
attr mutable ""
attr unit s
par WiredNetWithDHCP.client[2].ethg$o[0].channel datarate 1e+07bps
attr mutable ""
attr unit bps
par WiredNetWithDHCP.client[2].ethg$o[0].channel ber 0
attr mutable ""
par WiredNetWithDHCP.client[2].ethg$o[0].channel per 0
attr mutable ""
par WiredNetWithDHCP.client[2].ethg$o[0].channel length 10m
attr unit m
par WiredNetWithDHCP.switch.ethg$o[3].channel typename "\"inet.node.ethernet.Eth10M\""
par WiredNetWithDHCP.switch.ethg$o[3].channel disabled false
attr mutable ""
par WiredNetWithDHCP.switch.ethg$o[3].channel delay 5e-08s
attr mutable ""
attr unit s
par WiredNetWithDHCP.switch.ethg$o[3].channel datarate 1e+07bps
attr mutable ""
attr unit bps
par WiredNetWithDHCP.switch.ethg$o[3].channel ber 0
attr mutable ""
par WiredNetWithDHCP.switch.ethg$o[3].channel per 0
attr mutable ""
par WiredNetWithDHCP.switch.ethg$o[3].channel length 10m
attr unit m
par WiredNetWithDHCP.client[3].ethg$o[0].channel typename "\"inet.node.ethernet.Eth10M\""
par WiredNetWithDHCP.client[3].ethg$o[0].channel disabled false
attr mutable ""
par WiredNetWithDHCP.client[3].ethg$o[0].channel delay 5e-08s
attr mutable ""
attr unit s
par WiredNetWithDHCP.client[3].ethg$o[0].channel datarate 1e+07bps
attr mutable ""
attr unit bps
par WiredNetWithDHCP.client[3].ethg$o[0].channel ber 0
attr mutable ""
par WiredNetWithDHCP.client[3].ethg$o[0].channel per 0
attr mutable ""
par WiredNetWithDHCP.client[3].ethg$o[0].channel length 10m
attr unit m
par WiredNetWithDHCP.switch.ethg$o[4].channel typename "\"inet.node.ethernet.Eth10M\""
par WiredNetWithDHCP.switch.ethg$o[4].channel disabled false
attr mutable ""
par WiredNetWithDHCP.switch.ethg$o[4].channel delay 5e-08s
attr mutable ""
attr unit s
par WiredNetWithDHCP.switch.ethg$o[4].channel datarate 1e+07bps
attr mutable ""
attr unit bps
par WiredNetWithDHCP.switch.ethg$o[4].channel ber 0
attr mutable ""
par WiredNetWithDHCP.switch.ethg$o[4].channel per 0
attr mutable ""
par WiredNetWithDHCP.switch.ethg$o[4].channel length 10m
attr unit m
par WiredNetWithDHCP.client[4].ethg$o[0].channel typename "\"inet.node.ethernet.Eth10M\""
par WiredNetWithDHCP.client[4].ethg$o[0].channel disabled false
attr mutable ""
par WiredNetWithDHCP.client[4].ethg$o[0].channel delay 5e-08s
attr mutable ""
attr unit s
par WiredNetWithDHCP.client[4].ethg$o[0].channel datarate 1e+07bps
attr mutable ""
attr unit bps
par WiredNetWithDHCP.client[4].ethg$o[0].channel ber 0
attr mutable ""
par WiredNetWithDHCP.client[4].ethg$o[0].channel per 0
attr mutable ""
par WiredNetWithDHCP.client[4].ethg$o[0].channel length 10m
attr unit m
par WiredNetWithDHCP.switch.ethg$o[5].channel typename "\"inet.node.ethernet.Eth10M\""
par WiredNetWithDHCP.switch.ethg$o[5].channel disabled false
attr mutable ""
par WiredNetWithDHCP.switch.ethg$o[5].channel delay 5e-08s
attr mutable ""
attr unit s
par WiredNetWithDHCP.switch.ethg$o[5].channel datarate 1e+07bps
attr mutable ""
attr unit bps
par WiredNetWithDHCP.switch.ethg$o[5].channel ber 0
attr mutable ""
par WiredNetWithDHCP.switch.ethg$o[5].channel per 0
attr mutable ""
par WiredNetWithDHCP.switch.ethg$o[5].channel length 10m
attr unit m
par WiredNetWithDHCP.client[5].ethg$o[0].channel typename "\"inet.node.ethernet.Eth10M\""
par WiredNetWithDHCP.client[5].ethg$o[0].channel disabled false
attr mutable ""
par WiredNetWithDHCP.client[5].ethg$o[0].channel delay 5e-08s
attr mutable ""
attr unit s
par WiredNetWithDHCP.client[5].ethg$o[0].channel datarate 1e+07bps
attr mutable ""
attr unit bps
par WiredNetWithDHCP.client[5].ethg$o[0].channel ber 0
attr mutable ""
par WiredNetWithDHCP.client[5].ethg$o[0].channel per 0
attr mutable ""
par WiredNetWithDHCP.client[5].ethg$o[0].channel length 10m
attr unit m
par WiredNetWithDHCP.switch.ethg$o[6].channel typename "\"inet.node.ethernet.Eth10M\""
par WiredNetWithDHCP.switch.ethg$o[6].channel disabled false
attr mutable ""
par WiredNetWithDHCP.switch.ethg$o[6].channel delay 5e-08s
attr mutable ""
attr unit s
par WiredNetWithDHCP.switch.ethg$o[6].channel datarate 1e+07bps
attr mutable ""
attr unit bps
par WiredNetWithDHCP.switch.ethg$o[6].channel ber 0
attr mutable ""
par WiredNetWithDHCP.switch.ethg$o[6].channel per 0
attr mutable ""
par WiredNetWithDHCP.switch.ethg$o[6].channel length 10m
attr unit m
par WiredNetWithDHCP.client[6].ethg$o[0].channel typename "\"inet.node.ethernet.Eth10M\""
par WiredNetWithDHCP.client[6].ethg$o[0].channel disabled false
attr mutable ""
par WiredNetWithDHCP.client[6].ethg$o[0].channel delay 5e-08s
attr mutable ""
attr unit s
par WiredNetWithDHCP.client[6].ethg$o[0].channel datarate 1e+07bps
attr mutable ""
attr unit bps
par WiredNetWithDHCP.client[6].ethg$o[0].channel ber 0
attr mutable ""
par WiredNetWithDHCP.client[6].ethg$o[0].channel per 0
attr mutable ""
par WiredNetWithDHCP.client[6].ethg$o[0].channel length 10m
attr unit m
par WiredNetWithDHCP.switch.ethg$o[7].channel typename "\"inet.node.ethernet.Eth10M\""
par WiredNetWithDHCP.switch.ethg$o[7].channel disabled false
attr mutable ""
par WiredNetWithDHCP.switch.ethg$o[7].channel delay 5e-08s
attr mutable ""
attr unit s
par WiredNetWithDHCP.switch.ethg$o[7].channel datarate 1e+07bps
attr mutable ""
attr unit bps
par WiredNetWithDHCP.switch.ethg$o[7].channel ber 0
attr mutable ""
par WiredNetWithDHCP.switch.ethg$o[7].channel per 0
attr mutable ""
par WiredNetWithDHCP.switch.ethg$o[7].channel length 10m
attr unit m
par WiredNetWithDHCP.client[7].ethg$o[0].channel typename "\"inet.node.ethernet.Eth10M\""
par WiredNetWithDHCP.client[7].ethg$o[0].channel disabled false
attr mutable ""
par WiredNetWithDHCP.client[7].ethg$o[0].channel delay 5e-08s
attr mutable ""
attr unit s
par WiredNetWithDHCP.client[7].ethg$o[0].channel datarate 1e+07bps
attr mutable ""
attr unit bps
par WiredNetWithDHCP.client[7].ethg$o[0].channel ber 0
attr mutable ""
par WiredNetWithDHCP.client[7].ethg$o[0].channel per 0
attr mutable ""
par WiredNetWithDHCP.client[7].ethg$o[0].channel length 10m
attr unit m
par WiredNetWithDHCP.switch.ethg$o[8].channel typename "\"inet.node.ethernet.Eth10M\""
par WiredNetWithDHCP.switch.ethg$o[8].channel disabled false
attr mutable ""
par WiredNetWithDHCP.switch.ethg$o[8].channel delay 5e-08s
attr mutable ""
attr unit s
par WiredNetWithDHCP.switch.ethg$o[8].channel datarate 1e+07bps
attr mutable ""
attr unit bps
par WiredNetWithDHCP.switch.ethg$o[8].channel ber 0
attr mutable ""
par WiredNetWithDHCP.switch.ethg$o[8].channel per 0
attr mutable ""
par WiredNetWithDHCP.switch.ethg$o[8].channel length 10m
attr unit m
par WiredNetWithDHCP.client[8].ethg$o[0].channel typename "\"inet.node.ethernet.Eth10M\""
par WiredNetWithDHCP.client[8].ethg$o[0].channel disabled false
attr mutable ""
par WiredNetWithDHCP.client[8].ethg$o[0].channel delay 5e-08s
attr mutable ""
attr unit s
par WiredNetWithDHCP.client[8].ethg$o[0].channel datarate 1e+07bps
attr mutable ""
attr unit bps
par WiredNetWithDHCP.client[8].ethg$o[0].channel ber 0
attr mutable ""
par WiredNetWithDHCP.client[8].ethg$o[0].channel per 0
attr mutable ""
par WiredNetWithDHCP.client[8].ethg$o[0].channel length 10m
attr unit m
par WiredNetWithDHCP.switch.ethg$o[9].channel typename "\"inet.node.ethernet.Eth10M\""
par WiredNetWithDHCP.switch.ethg$o[9].channel disabled false
attr mutable ""
par WiredNetWithDHCP.switch.ethg$o[9].channel delay 5e-08s
attr mutable ""
attr unit s
par WiredNetWithDHCP.switch.ethg$o[9].channel datarate 1e+07bps
attr mutable ""
attr unit bps
par WiredNetWithDHCP.switch.ethg$o[9].channel ber 0
attr mutable ""
par WiredNetWithDHCP.switch.ethg$o[9].channel per 0
attr mutable ""
par WiredNetWithDHCP.switch.ethg$o[9].channel length 10m
attr unit m
par WiredNetWithDHCP.client[9].ethg$o[0].channel typename "\"inet.node.ethernet.Eth10M\""
par WiredNetWithDHCP.client[9].ethg$o[0].channel disabled false
attr mutable ""
par WiredNetWithDHCP.client[9].ethg$o[0].channel delay 5e-08s
attr mutable ""
attr unit s
par WiredNetWithDHCP.client[9].ethg$o[0].channel datarate 1e+07bps
attr mutable ""
attr unit bps
par WiredNetWithDHCP.client[9].ethg$o[0].channel ber 0
attr mutable ""
par WiredNetWithDHCP.client[9].ethg$o[0].channel per 0
attr mutable ""
par WiredNetWithDHCP.client[9].ethg$o[0].channel length 10m
attr unit m
par WiredNetWithDHCP.switch.ethg$o[10].channel typename "\"inet.node.ethernet.Eth10M\""
par WiredNetWithDHCP.switch.ethg$o[10].channel disabled false
attr mutable ""
par WiredNetWithDHCP.switch.ethg$o[10].channel delay 5e-08s
attr mutable ""
attr unit s
par WiredNetWithDHCP.switch.ethg$o[10].channel datarate 1e+07bps
attr mutable ""
attr unit bps
par WiredNetWithDHCP.switch.ethg$o[10].channel ber 0
attr mutable ""
par WiredNetWithDHCP.switch.ethg$o[10].channel per 0
attr mutable ""
par WiredNetWithDHCP.switch.ethg$o[10].channel length 10m
attr unit m
par WiredNetWithDHCP.server.ethg$i[0].channel typename "\"ned.IdealChannel\""
par WiredNetWithDHCP.server.eth[0].phys$o.channel typename "\"ned.IdealChannel\""
par WiredNetWithDHCP.server.interfaceTable typename "\"inet.networklayer.common.InterfaceTable\""
par WiredNetWithDHCP.server.interfaceTable displayAddresses false
par WiredNetWithDHCP.server.cb typename "\"inet.common.MessageDispatcher\""
par WiredNetWithDHCP.server.cb displayStringTextFormat "\"processed %p pk (%l)\""
par WiredNetWithDHCP.server.cb forwardServiceRegistration true
par WiredNetWithDHCP.server.cb forwardProtocolRegistration true
par WiredNetWithDHCP.server.bl typename "\"inet.common.MessageDispatcher\""
par WiredNetWithDHCP.server.bl displayStringTextFormat "\"processed %p pk (%l)\""
par WiredNetWithDHCP.server.bl forwardServiceRegistration true
par WiredNetWithDHCP.server.bl forwardProtocolRegistration true
par WiredNetWithDHCP.server.ethernet typename "\"inet.linklayer.ethernet.basic.EthernetEncapsulation\""
par WiredNetWithDHCP.server.ethernet registerProtocol true
par WiredNetWithDHCP.server.ethernet interfaceTableModule "\"WiredNetWithDHCP.server.interfaceTable\""
par WiredNetWithDHCP.server.ethernet fcsMode "\"declared\""
attr enum declared,computed
par WiredNetWithDHCP.server.ethernet stopOperationExtraTime -1s
attr unit s
par WiredNetWithDHCP.server.ethernet stopOperationTimeout 2s
attr unit s
scalar WiredNetWithDHCP.server.ethernet pauseSent:count 0
attr recordingmode count
attr title "pause sent, count"
scalar WiredNetWithDHCP.server.ethernet pauseSent:sum 0
attr recordingmode sum
attr title "pause sent, sum"
scalar WiredNetWithDHCP.server.ethernet decapPk:count 1
attr interpolationmode none
attr recordingmode count
attr source decapPk
attr title "packets decapsulated, count"
scalar WiredNetWithDHCP.server.ethernet decapPk:sum(packetBytes) 287
attr interpolationmode none
attr recordingmode sum(packetBytes)
attr source decapPk
attr title "packets decapsulated, sum(packetBytes)"
scalar WiredNetWithDHCP.server.ethernet encapPk:count 1
attr interpolationmode none
attr recordingmode count
attr source encapPk
attr title "packets encapsulated, count"
scalar WiredNetWithDHCP.server.ethernet encapPk:sum(packetBytes) 314
attr interpolationmode none
attr recordingmode sum(packetBytes)
attr source encapPk
attr title "packets encapsulated, sum(packetBytes)"
par WiredNetWithDHCP.server.li typename "\"inet.common.MessageDispatcher\""
par WiredNetWithDHCP.server.li displayStringTextFormat "\"processed %p pk (%l)\""
par WiredNetWithDHCP.server.li forwardServiceRegistration true
par WiredNetWithDHCP.server.li forwardProtocolRegistration true
par WiredNetWithDHCP.server.lo[0].upperLayerIn.channel typename "\"ned.IdealChannel\""
par WiredNetWithDHCP.server.lo[0].lo.upperLayerOut.channel typename "\"ned.IdealChannel\""
par WiredNetWithDHCP.server.lo[0].lo typename "\"inet.linklayer.loopback.Loopback\""
par WiredNetWithDHCP.server.lo[0].lo interfaceTableModule "\"WiredNetWithDHCP.server.interfaceTable\""
par WiredNetWithDHCP.server.lo[0].lo mtu 4470B
attr unit B
scalar WiredNetWithDHCP.server.lo[0].lo rcvdPkFromHl:count 0
attr interpolationmode none
attr recordingmode count
attr source packetReceivedFromUpper
attr title "packets received from higher layer, count"
scalar WiredNetWithDHCP.server.lo[0].lo rcvdPkFromHl:sum(packetBytes) 0
attr interpolationmode none
attr recordingmode sum(packetBytes)
attr source packetReceivedFromUpper
attr title "packets received from higher layer, sum(packetBytes)"
scalar WiredNetWithDHCP.server.lo[0].lo passedUpPk:count 0
attr interpolationmode none
attr recordingmode count
attr source packetSentToUpper
attr title "packets passed to higher layer, count"
scalar WiredNetWithDHCP.server.lo[0].lo passedUpPk:sum(packetBytes) 0
attr interpolationmode none
attr recordingmode sum(packetBytes)
attr source packetSentToUpper
attr title "packets passed to higher layer, sum(packetBytes)"
par WiredNetWithDHCP.server.lo[0] typename "\"inet.linklayer.loopback.LoopbackInterface\""
par WiredNetWithDHCP.server.lo[0] displayStringTextFormat "\"%a (%i)\\n%m\""
par WiredNetWithDHCP.server.lo[0] recordPcap false
par WiredNetWithDHCP.server.lo[0] numPcapRecorders 0
par WiredNetWithDHCP.server.lo[0] interfaceTableModule "\"WiredNetWithDHCP.server.interfaceTable\""
scalar WiredNetWithDHCP.server.lo[0] packetDropInterfaceDown:count 0
attr interpolationmode none
attr recordingmode count
attr source packetDropReasonIsInterfaceDown(packetDropped)
attr title "packet drops: interface down, count"
scalar WiredNetWithDHCP.server.lo[0] packetDropInterfaceDown:sum(packetBytes) 0
attr interpolationmode none
attr recordingmode sum(packetBytes)
attr source packetDropReasonIsInterfaceDown(packetDropped)
attr title "packet drops: interface down, sum(packetBytes)"
scalar WiredNetWithDHCP.server.lo[0] packetDropNoCarrier:count 0
attr interpolationmode none
attr recordingmode count
attr source packetDropReasonIsNoCarrier(packetDropped)
attr title "packet drops: no carrier, count"
scalar WiredNetWithDHCP.server.lo[0] packetDropNoCarrier:sum(packetBytes) 0
attr interpolationmode none
attr recordingmode sum(packetBytes)
attr source packetDropReasonIsNoCarrier(packetDropped)
attr title "packet drops: no carrier, sum(packetBytes)"
par WiredNetWithDHCP.server.eth[0].mac.phys$o.channel typename "\"ned.IdealChannel\""
par WiredNetWithDHCP.server.eth[0].phys$i.channel typename "\"ned.IdealChannel\""
par WiredNetWithDHCP.server.eth[0].upperLayerIn.channel typename "\"ned.IdealChannel\""
par WiredNetWithDHCP.server.eth[0].mac.upperLayerOut.channel typename "\"ned.IdealChannel\""
par WiredNetWithDHCP.server.eth[0].queue typename "\"inet.linklayer.ethernet.common.EthernetQueue\""
par WiredNetWithDHCP.server.eth[0].queue displayStringTextFormat "\"contains %p pk (%l) pushed %u\\npulled %o removed %r dropped %d\""
par WiredNetWithDHCP.server.eth[0].queue packetCapacity 1000
par WiredNetWithDHCP.server.eth[0].queue dataCapacity -1b
attr unit b
par WiredNetWithDHCP.server.eth[0].queue dropperClass "\"inet::queueing::PacketAtCollectionEndDropper\""
par WiredNetWithDHCP.server.eth[0].queue comparatorClass "\"inet::EthernetFrameTypeComparator\""
par WiredNetWithDHCP.server.eth[0].queue bufferModule "\"\""
scalar WiredNetWithDHCP.server.eth[0].queue queueLength:last 0
attr autoWarmupFilter false
attr interpolationmode sample-hold
attr recordingmode last
attr source "warmup(atomic(constant0(packetPushEnded) + count(packetPushStarted) - count(packetPulled) - count(packetRemoved) - count(packetDropped)))"
attr title "queue length, last"
attr unit pk
scalar WiredNetWithDHCP.server.eth[0].queue queueLength:max 0
attr autoWarmupFilter false
attr interpolationmode sample-hold
attr recordingmode max
attr source "warmup(atomic(constant0(packetPushEnded) + count(packetPushStarted) - count(packetPulled) - count(packetRemoved) - count(packetDropped)))"
attr title "queue length, max"
attr unit pk
scalar WiredNetWithDHCP.server.eth[0].queue queueLength:timeavg 0
attr autoWarmupFilter false
attr interpolationmode sample-hold
attr recordingmode timeavg
attr source "warmup(atomic(constant0(packetPushEnded) + count(packetPushStarted) - count(packetPulled) - count(packetRemoved) - count(packetDropped)))"
attr title "queue length, timeavg"
attr unit pk
scalar WiredNetWithDHCP.server.eth[0].queue queueBitLength:last 0
attr autoWarmupFilter false
attr interpolationmode sample-hold
attr recordingmode last
attr source "warmup(atomic(constant0(packetPushEnded) + sum(packetLength(packetPushStarted)) - sum(packetLength(packetPulled)) - sum(packetLength(packetRemoved)) - sum(packetLength(packetDropped))))"
attr title "queue bit length, last"
attr unit b
scalar WiredNetWithDHCP.server.eth[0].queue queueBitLength:max 0
attr autoWarmupFilter false
attr interpolationmode sample-hold
attr recordingmode max
attr source "warmup(atomic(constant0(packetPushEnded) + sum(packetLength(packetPushStarted)) - sum(packetLength(packetPulled)) - sum(packetLength(packetRemoved)) - sum(packetLength(packetDropped))))"
attr title "queue bit length, max"
attr unit b
scalar WiredNetWithDHCP.server.eth[0].queue queueBitLength:timeavg 0
attr autoWarmupFilter false
attr interpolationmode sample-hold
attr recordingmode timeavg
attr source "warmup(atomic(constant0(packetPushEnded) + sum(packetLength(packetPushStarted)) - sum(packetLength(packetPulled)) - sum(packetLength(packetRemoved)) - sum(packetLength(packetDropped))))"
attr title "queue bit length, timeavg"
attr unit b
statistic WiredNetWithDHCP.server.eth[0].queue queueingTime:histogram
field count 1
field mean 0
field stddev nan
field min 0
field max 0
field sum 0
field sqrsum 0
attr interpolationmode none
attr recordingmode histogram
attr source queueingTime(packetPulled)
attr title "queueing times"
attr unit s
bin	-inf	0
bin	-0.5	0
bin	-0.48	0
bin	-0.46	0
bin	-0.44	0
bin	-0.42	0
bin	-0.4	0
bin	-0.38	0
bin	-0.36	0
bin	-0.34	0
bin	-0.32	0
bin	-0.3	0
bin	-0.28	0
bin	-0.26	0
bin	-0.24	0
bin	-0.22	0
bin	-0.2	0
bin	-0.18	0
bin	-0.16	0
bin	-0.14	0
bin	-0.12	0
bin	-0.1	0
bin	-0.08	0
bin	-0.06	0
bin	-0.04	0
bin	-0.02	0
bin	0	1
bin	0.02	0
bin	0.04	0
bin	0.06	0
bin	0.08	0
bin	0.1	0
bin	0.12	0
bin	0.14	0
bin	0.16	0
bin	0.18	0
bin	0.2	0
bin	0.22	0
bin	0.24	0
bin	0.26	0
bin	0.28	0
bin	0.3	0
bin	0.32	0
bin	0.34	0
bin	0.36	0
bin	0.38	0
bin	0.4	0
bin	0.42	0
bin	0.44	0
bin	0.46	0
bin	0.48	0
bin	0.5	0
scalar WiredNetWithDHCP.server.eth[0].queue outgoingPackets:count 1
attr recordingmode count
attr source packetPulled
attr title "outgoing packets, count"
attr unit pk
scalar WiredNetWithDHCP.server.eth[0].queue outgoingPacketLengths:sum 2656
attr interpolationmode none
attr recordingmode sum
attr source packetLength(packetPulled)
attr title "outgoing packet lengths, sum"
attr unit b
statistic WiredNetWithDHCP.server.eth[0].queue outgoingPacketLengths:histogram
field count 1
field mean 2656
field stddev nan
field min 2656
field max 2656
field sum 2656
field sqrsum 7054336
attr interpolationmode none
attr recordingmode histogram
attr source packetLength(packetPulled)
attr title "outgoing packet lengths"
attr unit b
bin	-inf	0
bin	2655	0
bin	2656	1
bin	2657	0
statistic WiredNetWithDHCP.server.eth[0].queue flowQueueingTime:histogram
field count 0
field mean -nan
field stddev nan
field min nan
field max nan
field sum 0
field sqrsum 0
attr interpolationmode none
attr recordingmode histogram
attr source queueingTime(demuxFlow(packetPulled))
attr title "flow queueing times"
attr unit s
bin	-inf	0
bin	0	0
bin	1	0
scalar WiredNetWithDHCP.server.eth[0].queue incomingPackets:count 1
attr recordingmode count
attr source packetPushStarted
attr title "incoming packets, count"
attr unit pk
scalar WiredNetWithDHCP.server.eth[0].queue incomingPacketLengths:sum 2656
attr interpolationmode none
attr recordingmode sum
attr source packetLength(packetPushStarted)
attr title "incoming packet lengths, sum"
attr unit b
statistic WiredNetWithDHCP.server.eth[0].queue incomingPacketLengths:histogram
field count 1
field mean 2656
field stddev nan
field min 2656
field max 2656
field sum 2656
field sqrsum 7054336
attr interpolationmode none
attr recordingmode histogram
attr source packetLength(packetPushStarted)
attr title "incoming packet lengths"
attr unit b
bin	-inf	0
bin	2655	0
bin	2656	1
bin	2657	0
scalar WiredNetWithDHCP.server.eth[0].queue droppedPacketsQueueOverflow:count 0
attr interpolationmode none
attr recordingmode count
attr source packetDropReasonIsQueueOverflow(packetDropped)
attr title "dropped packets: queue overflow, count"
attr unit pk
scalar WiredNetWithDHCP.server.eth[0].queue droppedPacketLengthsQueueOverflow:sum 0
attr interpolationmode none
attr recordingmode sum
attr source packetLength(packetDropReasonIsQueueOverflow(packetDropped))
attr title "dropped packet lengths: queue overflow, sum"
attr unit b
par WiredNetWithDHCP.server.eth[0].mac typename "\"inet.linklayer.ethernet.basic.EthernetMac\""
par WiredNetWithDHCP.server.eth[0].mac interfaceTableModule "\"WiredNetWithDHCP.server.interfaceTable\""
par WiredNetWithDHCP.server.eth[0].mac displayStringTextFormat "\"rate: %b\\nsent: %s, rcvd: %r\\nqueue: %q, drop: %d\""
par WiredNetWithDHCP.server.eth[0].mac sendRawBytes false
par WiredNetWithDHCP.server.eth[0].mac promiscuous false
par WiredNetWithDHCP.server.eth[0].mac duplexMode true
par WiredNetWithDHCP.server.eth[0].mac mtu 1500B
attr unit B
par WiredNetWithDHCP.server.eth[0].mac fcsMode "\"declared\""
attr enum declared,computed
par WiredNetWithDHCP.server.eth[0].mac stopOperationExtraTime -1s
attr unit s
par WiredNetWithDHCP.server.eth[0].mac stopOperationTimeout 2s
attr unit s
scalar WiredNetWithDHCP.server.eth[0].mac "simulated time" 0.424427788277
scalar WiredNetWithDHCP.server.eth[0].mac full-duplex 1
scalar WiredNetWithDHCP.server.eth[0].mac "frames/sec sent" 2.3561134016686
scalar WiredNetWithDHCP.server.eth[0].mac "frames/sec rcvd" 2.3561134016686
scalar WiredNetWithDHCP.server.eth[0].mac "bits/sec sent" 6257.8371948318
scalar WiredNetWithDHCP.server.eth[0].mac "bits/sec rcvd" 5748.9167000714
scalar WiredNetWithDHCP.server.eth[0].mac "rx channel idle (%)" 99.941002920422
scalar WiredNetWithDHCP.server.eth[0].mac "rx channel utilization (%)" 0.058997079577782
scalar WiredNetWithDHCP.server.eth[0].mac rxPausePkUnits:count 0
attr interpolationmode none
attr recordingmode count
attr title "pause units received, count"
scalar WiredNetWithDHCP.server.eth[0].mac rxPausePkUnits:sum 0
attr interpolationmode none
attr recordingmode sum
attr title "pause units received, sum"
scalar WiredNetWithDHCP.server.eth[0].mac txPausePkUnits:count 0
attr interpolationmode none
attr recordingmode count
attr title "pause units sent, count"
scalar WiredNetWithDHCP.server.eth[0].mac txPausePkUnits:sum 0
attr interpolationmode none
attr recordingmode sum
attr title "pause units sent, sum"
scalar WiredNetWithDHCP.server.eth[0].mac rxPkOk:count 1
attr interpolationmode none
attr recordingmode count
attr source rxPkOk
attr title "packets received OK, count"
scalar WiredNetWithDHCP.server.eth[0].mac rxPkOk:sum(packetBytes) 305
attr interpolationmode none
attr recordingmode sum(packetBytes)
attr source rxPkOk
attr title "packets received OK, sum(packetBytes)"
scalar WiredNetWithDHCP.server.eth[0].mac txPk:count 1
attr interpolationmode none
attr recordingmode count
attr source packetSentToLower
attr title "packets transmitted, count"
scalar WiredNetWithDHCP.server.eth[0].mac txPk:sum(packetBytes) 332
attr interpolationmode none
attr recordingmode sum(packetBytes)
attr source packetSentToLower
attr title "packets transmitted, sum(packetBytes)"
scalar WiredNetWithDHCP.server.eth[0].mac packetReceivedFromUpper:count 1
attr interpolationmode none
attr recordingmode count
attr source packetReceivedFromUpper
attr title "packet bytes from higher layer, count"
scalar WiredNetWithDHCP.server.eth[0].mac packetReceivedFromUpper:sum(packetBytes) 332
attr interpolationmode none
attr recordingmode sum(packetBytes)
attr source packetReceivedFromUpper
attr title "packet bytes from higher layer, sum(packetBytes)"
scalar WiredNetWithDHCP.server.eth[0].mac passedUpPk:count 1
attr interpolationmode none
attr recordingmode count
attr source packetSentToUpper
attr title "packets passed to higher layer, count"
scalar WiredNetWithDHCP.server.eth[0].mac passedUpPk:sum(packetBytes) 305
attr interpolationmode none
attr recordingmode sum(packetBytes)
attr source packetSentToUpper
attr title "packets passed to higher layer, sum(packetBytes)"
scalar WiredNetWithDHCP.server.eth[0].mac packetDropIncorrectlyReceived:count 0
attr interpolationmode none
attr recordingmode count
attr source packetDropReasonIsIncorrectlyReceived(packetDropped)
attr title "packet drop: incorrectly received, count"
scalar WiredNetWithDHCP.server.eth[0].mac packetDropIncorrectlyReceived:sum(packetBytes) 0
attr interpolationmode none
attr recordingmode sum(packetBytes)
attr source packetDropReasonIsIncorrectlyReceived(packetDropped)
attr title "packet drop: incorrectly received, sum(packetBytes)"
scalar WiredNetWithDHCP.server.eth[0].mac packetDropInterfaceDown:count 0
attr interpolationmode none
attr recordingmode count
attr source packetDropReasonIsInterfaceDown(packetDropped)
attr title "packet drop: interface down, count"
scalar WiredNetWithDHCP.server.eth[0].mac packetDropInterfaceDown:sum(packetBytes) 0
attr interpolationmode none
attr recordingmode sum(packetBytes)
attr source packetDropReasonIsInterfaceDown(packetDropped)
attr title "packet drop: interface down, sum(packetBytes)"
scalar WiredNetWithDHCP.server.eth[0].mac packetDropNotAddressedToUs:count 0
attr interpolationmode none
attr recordingmode count
attr source packetDropReasonIsNotAddressedToUs(packetDropped)
attr title "packet drop: not addressed to us, count"
scalar WiredNetWithDHCP.server.eth[0].mac packetDropNotAddressedToUs:sum(packetBytes) 0
attr interpolationmode none
attr recordingmode sum(packetBytes)
attr source packetDropReasonIsNotAddressedToUs(packetDropped)
attr title "packet drop: not addressed to us, sum(packetBytes)"
par WiredNetWithDHCP.server.eth[0] typename "\"inet.linklayer.ethernet.EthernetInterface\""
par WiredNetWithDHCP.server.eth[0] displayStringTextFormat "\"%a (%i)\\n%m\""
par WiredNetWithDHCP.server.eth[0] recordPcap false
par WiredNetWithDHCP.server.eth[0] numPcapRecorders 0
par WiredNetWithDHCP.server.eth[0] interfaceTableModule "\"WiredNetWithDHCP.server.interfaceTable\""
par WiredNetWithDHCP.server.eth[0] protocol "\"ethernetmac\""
par WiredNetWithDHCP.server.eth[0] address "\"0A-AA-00-00-00-01\""
attr mutable ""
par WiredNetWithDHCP.server.eth[0] duplexMode true
par WiredNetWithDHCP.server.eth[0] csmacdSupport false
par WiredNetWithDHCP.server.eth[0] bitrate 0bps
attr unit bps
par WiredNetWithDHCP.server.eth[0] fcsMode "\"declared\""
attr enum declared,computed
scalar WiredNetWithDHCP.server.eth[0] packetDropInterfaceDown:count 0
attr interpolationmode none
attr recordingmode count
attr source packetDropReasonIsInterfaceDown(packetDropped)
attr title "packet drops: interface down, count"
scalar WiredNetWithDHCP.server.eth[0] packetDropInterfaceDown:sum(packetBytes) 0
attr interpolationmode none
attr recordingmode sum(packetBytes)
attr source packetDropReasonIsInterfaceDown(packetDropped)
attr title "packet drops: interface down, sum(packetBytes)"
scalar WiredNetWithDHCP.server.eth[0] packetDropNoCarrier:count 0
attr interpolationmode none
attr recordingmode count
attr source packetDropReasonIsNoCarrier(packetDropped)
attr title "packet drops: no carrier, count"
scalar WiredNetWithDHCP.server.eth[0] packetDropNoCarrier:sum(packetBytes) 0
attr interpolationmode none
attr recordingmode sum(packetBytes)
attr source packetDropReasonIsNoCarrier(packetDropped)
attr title "packet drops: no carrier, sum(packetBytes)"
par WiredNetWithDHCP.server.ipv4.transportIn.channel typename "\"ned.IdealChannel\""
par WiredNetWithDHCP.server.ipv4.up.out[0].channel typename "\"ned.IdealChannel\""
par WiredNetWithDHCP.server.ipv4.lp.out[2].channel typename "\"ned.IdealChannel\""
par WiredNetWithDHCP.server.ipv4.ifIn.channel typename "\"ned.IdealChannel\""
par WiredNetWithDHCP.server.ipv4.configurator typename "\"inet.networklayer.configurator.ipv4.Ipv4NodeConfigurator\""
par WiredNetWithDHCP.server.ipv4.configurator interfaceTableModule "\"WiredNetWithDHCP.server.interfaceTable\""
par WiredNetWithDHCP.server.ipv4.configurator routingTableModule "\"WiredNetWithDHCP.server.ipv4.routingTable\""
par WiredNetWithDHCP.server.ipv4.configurator networkConfiguratorModule "\"configurator\""
par WiredNetWithDHCP.server.ipv4.configurator configureRoutingTable true
par WiredNetWithDHCP.server.ipv4.routingTable typename "\"inet.networklayer.ipv4.Ipv4RoutingTable\""
par WiredNetWithDHCP.server.ipv4.routingTable interfaceTableModule "\"WiredNetWithDHCP.server.interfaceTable\""
par WiredNetWithDHCP.server.ipv4.routingTable routerId "\"auto\""
par WiredNetWithDHCP.server.ipv4.routingTable netmaskRoutes "\"*\""
par WiredNetWithDHCP.server.ipv4.routingTable forwarding false
par WiredNetWithDHCP.server.ipv4.routingTable multicastForwarding false
par WiredNetWithDHCP.server.ipv4.routingTable useAdminDist false
par WiredNetWithDHCP.server.ipv4.routingTable routingFile "\"\""
par WiredNetWithDHCP.server.ipv4.natTable typename "\"inet.networklayer.ipv4.Ipv4NatTable\""
par WiredNetWithDHCP.server.ipv4.natTable networkProtocolModule "\"^.ip\""
par WiredNetWithDHCP.server.ipv4.natTable config "<config/> at content:1"
par WiredNetWithDHCP.server.ipv4.up typename "\"inet.common.MessageDispatcher\""
par WiredNetWithDHCP.server.ipv4.up displayStringTextFormat "\"processed %p pk (%l)\""
par WiredNetWithDHCP.server.ipv4.up forwardServiceRegistration true
par WiredNetWithDHCP.server.ipv4.up forwardProtocolRegistration true
par WiredNetWithDHCP.server.ipv4.igmp typename "\"inet.networklayer.ipv4.Igmpv2\""
par WiredNetWithDHCP.server.ipv4.igmp interfaceTableModule "\"WiredNetWithDHCP.server.interfaceTable\""
par WiredNetWithDHCP.server.ipv4.igmp routingTableModule "\"WiredNetWithDHCP.server.ipv4.routingTable\""
par WiredNetWithDHCP.server.ipv4.igmp crcMode "\"declared\""
attr enum declared,computed
par WiredNetWithDHCP.server.ipv4.igmp enabled true
par WiredNetWithDHCP.server.ipv4.igmp robustnessVariable 2
par WiredNetWithDHCP.server.ipv4.igmp queryInterval 125s
attr unit s
par WiredNetWithDHCP.server.ipv4.igmp queryResponseInterval 10s
attr unit s
par WiredNetWithDHCP.server.ipv4.igmp groupMembershipInterval 260s
attr unit s
par WiredNetWithDHCP.server.ipv4.igmp otherQuerierPresentInterval 255s
attr unit s
par WiredNetWithDHCP.server.ipv4.igmp startupQueryInterval 31.25s
attr unit s
par WiredNetWithDHCP.server.ipv4.igmp startupQueryCount 2
par WiredNetWithDHCP.server.ipv4.igmp lastMemberQueryInterval 1s
attr unit s
par WiredNetWithDHCP.server.ipv4.igmp lastMemberQueryCount 2
par WiredNetWithDHCP.server.ipv4.igmp unsolicitedReportInterval 10s
attr unit s
par WiredNetWithDHCP.server.ipv4.icmp typename "\"inet.networklayer.ipv4.Icmp\""
par WiredNetWithDHCP.server.ipv4.icmp interfaceTableModule "\"WiredNetWithDHCP.server.interfaceTable\""
par WiredNetWithDHCP.server.ipv4.icmp routingTableModule "\"WiredNetWithDHCP.server.ipv4.routingTable\""
par WiredNetWithDHCP.server.ipv4.icmp crcMode "\"declared\""
attr enum declared,computed
attr mutable ""
par WiredNetWithDHCP.server.ipv4.icmp quoteLength 8B
attr mutable ""
attr unit B
par WiredNetWithDHCP.server.ipv4.mp typename "\"inet.common.MessageDispatcher\""
par WiredNetWithDHCP.server.ipv4.mp displayStringTextFormat "\"processed %p pk (%l)\""
par WiredNetWithDHCP.server.ipv4.mp forwardServiceRegistration true
par WiredNetWithDHCP.server.ipv4.mp forwardProtocolRegistration true
par WiredNetWithDHCP.server.ipv4.ip typename "\"inet.networklayer.ipv4.Ipv4\""
par WiredNetWithDHCP.server.ipv4.ip interfaceTableModule "\"WiredNetWithDHCP.server.interfaceTable\""
par WiredNetWithDHCP.server.ipv4.ip routingTableModule "\"WiredNetWithDHCP.server.ipv4.routingTable\""
par WiredNetWithDHCP.server.ipv4.ip arpModule "\"WiredNetWithDHCP.server.ipv4.arp\""
par WiredNetWithDHCP.server.ipv4.ip icmpModule "\"WiredNetWithDHCP.server.ipv4.icmp\""
par WiredNetWithDHCP.server.ipv4.ip crcMode "\"declared\""
attr enum declared,computed
par WiredNetWithDHCP.server.ipv4.ip timeToLive 32
par WiredNetWithDHCP.server.ipv4.ip multicastTimeToLive 32
par WiredNetWithDHCP.server.ipv4.ip fragmentTimeout 60s
attr unit s
par WiredNetWithDHCP.server.ipv4.ip limitedBroadcast false
par WiredNetWithDHCP.server.ipv4.ip directBroadcastInterfaces "\"\""
scalar WiredNetWithDHCP.server.ipv4.ip packetDropAddressResolutionFailed:count 0
attr interpolationmode none
attr recordingmode count
attr source packetDropReasonIsAddressResolutionFailed(packetDropped)
attr title "packet drop: address resolution failed, count"
scalar WiredNetWithDHCP.server.ipv4.ip packetDropAddressResolutionFailed:sum(packetBytes) 0
attr interpolationmode none
attr recordingmode sum(packetBytes)
attr source packetDropReasonIsAddressResolutionFailed(packetDropped)
attr title "packet drop: address resolution failed, sum(packetBytes)"
scalar WiredNetWithDHCP.server.ipv4.ip packetDropHopLimitReached:count 0
attr interpolationmode none
attr recordingmode count
attr source packetDropReasonIsHopLimitReached(packetDropped)
attr title "packet drop: hop limit reached, count"
scalar WiredNetWithDHCP.server.ipv4.ip packetDropHopLimitReached:sum(packetBytes) 0
attr interpolationmode none
attr recordingmode sum(packetBytes)
attr source packetDropReasonIsHopLimitReached(packetDropped)
attr title "packet drop: hop limit reached, sum(packetBytes)"
scalar WiredNetWithDHCP.server.ipv4.ip packetDropForwardingDisabled:count 0
attr interpolationmode none
attr recordingmode count
attr source packetDropReasonIsForwardingDisabled(packetDropped)
attr title "packet drop: forwarding disabled, count"
scalar WiredNetWithDHCP.server.ipv4.ip packetDropForwardingDisabled:sum(packetBytes) 0
attr interpolationmode none
attr recordingmode sum(packetBytes)
attr source packetDropReasonIsForwardingDisabled(packetDropped)
attr title "packet drop: forwarding disabled, sum(packetBytes)"
scalar WiredNetWithDHCP.server.ipv4.ip packetDropNoInterfaceFound:count 0
attr interpolationmode none
attr recordingmode count
attr source packetDropReasonIsNoInterfaceFound(packetDropped)
attr title "packet drop: no interface found, count"
scalar WiredNetWithDHCP.server.ipv4.ip packetDropNoInterfaceFound:sum(packetBytes) 0
attr interpolationmode none
attr recordingmode sum(packetBytes)
attr source packetDropReasonIsNoInterfaceFound(packetDropped)
attr title "packet drop: no interface found, sum(packetBytes)"
scalar WiredNetWithDHCP.server.ipv4.ip packetDropNoRouteFound:count 0
attr interpolationmode none
attr recordingmode count
attr source packetDropReasonIsNoRouteFound(packetDropped)
attr title "packet drop: no route found, count"
scalar WiredNetWithDHCP.server.ipv4.ip packetDropNoRouteFound:sum(packetBytes) 0
attr interpolationmode none
attr recordingmode sum(packetBytes)
attr source packetDropReasonIsNoRouteFound(packetDropped)
attr title "packet drop: no route found, sum(packetBytes)"
scalar WiredNetWithDHCP.server.ipv4.ip packetDropUndefined:count 0
attr interpolationmode none
attr recordingmode count
attr source packetDropReasonIsUndefined(packetDropped)
attr title "packet drop: undefined, count"
scalar WiredNetWithDHCP.server.ipv4.ip packetDropUndefined:sum(packetBytes) 0
attr interpolationmode none
attr recordingmode sum(packetBytes)
attr source packetDropReasonIsUndefined(packetDropped)
attr title "packet drop: undefined, sum(packetBytes)"
par WiredNetWithDHCP.server.ipv4.arp typename "\"inet.networklayer.arp.ipv4.Arp\""
par WiredNetWithDHCP.server.ipv4.arp interfaceTableModule "\"WiredNetWithDHCP.server.interfaceTable\""
par WiredNetWithDHCP.server.ipv4.arp routingTableModule "\"WiredNetWithDHCP.server.ipv4.routingTable\""
par WiredNetWithDHCP.server.ipv4.arp retryTimeout 1s
attr unit s
par WiredNetWithDHCP.server.ipv4.arp retryCount 3
par WiredNetWithDHCP.server.ipv4.arp cacheTimeout 120s
attr unit s
par WiredNetWithDHCP.server.ipv4.arp proxyArpInterfaces "\"\""
scalar WiredNetWithDHCP.server.ipv4.arp arpResolutionFailed:count 0
attr recordingmode count
attr title "ARP failed resolutions, count"
scalar WiredNetWithDHCP.server.ipv4.arp arpResolutionCompleted:count 0
attr recordingmode count
attr title "ARP completed resolutions, count"
scalar WiredNetWithDHCP.server.ipv4.arp arpResolutionInitiated:count 0
attr recordingmode count
attr title "ARP initiated resolutions, count"
scalar WiredNetWithDHCP.server.ipv4.arp arpReplySent:count 0
attr recordingmode count
attr source arpReplySent
attr title "ARP replies sent, count"
scalar WiredNetWithDHCP.server.ipv4.arp arpReplySent:sum(packetBytes) 0
attr recordingmode sum(packetBytes)
attr source arpReplySent
attr title "ARP replies sent, sum(packetBytes)"
scalar WiredNetWithDHCP.server.ipv4.arp arpRequestSent:count 0
attr recordingmode count
attr source arpRequestSent
attr title "ARP request sent, count"
scalar WiredNetWithDHCP.server.ipv4.arp arpRequestSent:sum(packetBytes) 0
attr recordingmode sum(packetBytes)
attr source arpRequestSent
attr title "ARP request sent, sum(packetBytes)"
par WiredNetWithDHCP.server.ipv4.lp typename "\"inet.common.MessageDispatcher\""
par WiredNetWithDHCP.server.ipv4.lp displayStringTextFormat "\"processed %p pk (%l)\""
par WiredNetWithDHCP.server.ipv4.lp forwardServiceRegistration true
par WiredNetWithDHCP.server.ipv4.lp forwardProtocolRegistration true
par WiredNetWithDHCP.server.ipv4 typename "\"inet.networklayer.ipv4.Ipv4NetworkLayer\""
par WiredNetWithDHCP.server.ipv4 forwarding false
par WiredNetWithDHCP.server.ipv4 multicastForwarding false
par WiredNetWithDHCP.server.ipv4 interfaceTableModule "\"WiredNetWithDHCP.server.interfaceTable\""
par WiredNetWithDHCP.server.ipv4 displayStringTextFormat "\"%i\""
par WiredNetWithDHCP.server.nl typename "\"inet.common.MessageDispatcher\""
par WiredNetWithDHCP.server.nl displayStringTextFormat "\"processed %p pk (%l)\""
par WiredNetWithDHCP.server.nl forwardServiceRegistration true
par WiredNetWithDHCP.server.nl forwardProtocolRegistration true
par WiredNetWithDHCP.server.udp typename "\"inet.transportlayer.udp.Udp\""
par WiredNetWithDHCP.server.udp interfaceTableModule "\"WiredNetWithDHCP.server.interfaceTable\""
par WiredNetWithDHCP.server.udp icmpModule "\"^.ipv4.icmp\""
par WiredNetWithDHCP.server.udp icmpv6Module "\"^.ipv6.icmpv6\""
par WiredNetWithDHCP.server.udp crcMode "\"declared\""
attr enum disabled,declared,computed
par WiredNetWithDHCP.server.udp defaultMulticastLoop true
scalar WiredNetWithDHCP.server.udp packetReceived:count 1
attr interpolationmode none
attr recordingmode count
attr source packetReceived
attr title "packets received, count"
scalar WiredNetWithDHCP.server.udp packetReceived:sum(packetBytes) 267
attr interpolationmode none
attr recordingmode sum(packetBytes)
attr source packetReceived
attr title "packets received, sum(packetBytes)"
scalar WiredNetWithDHCP.server.udp packetSent:count 1
attr interpolationmode none
attr recordingmode count
attr source packetSent
attr title "packets sent, count"
scalar WiredNetWithDHCP.server.udp packetSent:sum(packetBytes) 294
attr interpolationmode none
attr recordingmode sum(packetBytes)
attr source packetSent
attr title "packets sent, sum(packetBytes)"
scalar WiredNetWithDHCP.server.udp passedUpPk:count 1
attr interpolationmode none
attr recordingmode count
attr source packetSentToUpper
attr title "packets passed up, count"
scalar WiredNetWithDHCP.server.udp droppedPkWrongPort:count 0
attr interpolationmode none
attr recordingmode count
attr source packetDropReasonIsNoPortFound(packetDropped)
attr title "packets dropped (wrong port), count"
scalar WiredNetWithDHCP.server.udp droppedPkBadChecksum:count 0
attr interpolationmode none
attr recordingmode count
attr source packetDropReasonIsIncorrectlyReceived(packetDropped)
attr title "packets dropped (checksum error), count"
par WiredNetWithDHCP.server.tcp typename "\"inet.transportlayer.tcp.Tcp\""
par WiredNetWithDHCP.server.tcp crcMode "\"declared\""
attr enum declared,computed
par WiredNetWithDHCP.server.tcp advertisedWindow 7504
par WiredNetWithDHCP.server.tcp delayedAcksEnabled false
par WiredNetWithDHCP.server.tcp nagleEnabled true
par WiredNetWithDHCP.server.tcp limitedTransmitEnabled false
par WiredNetWithDHCP.server.tcp increasedIWEnabled false
par WiredNetWithDHCP.server.tcp sackSupport false
par WiredNetWithDHCP.server.tcp windowScalingSupport false
par WiredNetWithDHCP.server.tcp windowScalingFactor -1
par WiredNetWithDHCP.server.tcp timestampSupport false
par WiredNetWithDHCP.server.tcp mss 536
par WiredNetWithDHCP.server.tcp msl 120s
attr unit s
par WiredNetWithDHCP.server.tcp tcpAlgorithmClass "\"TcpReno\""
par WiredNetWithDHCP.server.tcp useDataNotification false
par WiredNetWithDHCP.server.tcp dupthresh 3
par WiredNetWithDHCP.server.tcp initialSsthresh 4294967295
par WiredNetWithDHCP.server.tcp stopOperationExtraTime 0s
attr unit s
par WiredNetWithDHCP.server.tcp stopOperationTimeout 2s
attr unit s
par WiredNetWithDHCP.server.tcp ecnWillingness false
par WiredNetWithDHCP.server.tcp dctcpGamma 0.0625
par WiredNetWithDHCP.server.tn typename "\"inet.common.MessageDispatcher\""
par WiredNetWithDHCP.server.tn displayStringTextFormat "\"processed %p pk (%l)\""
par WiredNetWithDHCP.server.tn forwardServiceRegistration true
par WiredNetWithDHCP.server.tn forwardProtocolRegistration true
par WiredNetWithDHCP.server.app[0] typename "\"inet.applications.dhcp.DhcpServer\""
par WiredNetWithDHCP.server.app[0] interfaceTableModule "\"WiredNetWithDHCP.server.interfaceTable\""
par WiredNetWithDHCP.server.app[0] interface "\"\""
par WiredNetWithDHCP.server.app[0] numReservedAddresses 100
par WiredNetWithDHCP.server.app[0] maxNumClients 100
par WiredNetWithDHCP.server.app[0] gateway "\"192.168.1.1\""
par WiredNetWithDHCP.server.app[0] leaseTime 1000s
attr unit s
par WiredNetWithDHCP.server.app[0] startTime 0s
attr unit s
par WiredNetWithDHCP.server.app[0] stopOperationExtraTime -1s
attr unit s
par WiredNetWithDHCP.server.app[0] stopOperationTimeout 2s
attr unit s
par WiredNetWithDHCP.server.at typename "\"inet.common.MessageDispatcher\""
par WiredNetWithDHCP.server.at displayStringTextFormat "\"processed %p pk (%l)\""
par WiredNetWithDHCP.server.at forwardServiceRegistration true
par WiredNetWithDHCP.server.at forwardProtocolRegistration true
par WiredNetWithDHCP.server typename "\"inet.node.inet.StandardHost\""
par WiredNetWithDHCP.server hasStatus false
par WiredNetWithDHCP.server osgModel "\"\""
par WiredNetWithDHCP.server osgModelColor "\"\""
par WiredNetWithDHCP.server canvasImage "\"\""
par WiredNetWithDHCP.server canvasImageColor "\"\""
par WiredNetWithDHCP.server recordPcap false
par WiredNetWithDHCP.server numPcapRecorders 0
par WiredNetWithDHCP.server numLoInterfaces 1
par WiredNetWithDHCP.server numWlanInterfaces 0
par WiredNetWithDHCP.server numEthInterfaces 0
par WiredNetWithDHCP.server numPppInterfaces 0
par WiredNetWithDHCP.server numTunInterfaces 0
par WiredNetWithDHCP.server numVirtInterfaces 0
par WiredNetWithDHCP.server fcsMode "\"declared\""
attr enum declared,computed
par WiredNetWithDHCP.server hasIpv4 true
par WiredNetWithDHCP.server hasIpv6 false
par WiredNetWithDHCP.server hasGn false
par WiredNetWithDHCP.server forwarding false
par WiredNetWithDHCP.server multicastForwarding false
par WiredNetWithDHCP.server hasUdp true
par WiredNetWithDHCP.server hasTcp true
par WiredNetWithDHCP.server hasSctp false
par WiredNetWithDHCP.server numApps 1
par WiredNetWithDHCP.switch.eth[0].phys$o.channel typename "\"ned.IdealChannel\""
par WiredNetWithDHCP.switch.ethg$i[0].channel typename "\"ned.IdealChannel\""
par WiredNetWithDHCP.switch.eth[1].phys$o.channel typename "\"ned.IdealChannel\""
par WiredNetWithDHCP.switch.ethg$i[1].channel typename "\"ned.IdealChannel\""
par WiredNetWithDHCP.switch.eth[2].phys$o.channel typename "\"ned.IdealChannel\""
par WiredNetWithDHCP.switch.ethg$i[2].channel typename "\"ned.IdealChannel\""
par WiredNetWithDHCP.switch.eth[3].phys$o.channel typename "\"ned.IdealChannel\""
par WiredNetWithDHCP.switch.ethg$i[3].channel typename "\"ned.IdealChannel\""
par WiredNetWithDHCP.switch.eth[4].phys$o.channel typename "\"ned.IdealChannel\""
par WiredNetWithDHCP.switch.ethg$i[4].channel typename "\"ned.IdealChannel\""
par WiredNetWithDHCP.switch.eth[5].phys$o.channel typename "\"ned.IdealChannel\""
par WiredNetWithDHCP.switch.ethg$i[5].channel typename "\"ned.IdealChannel\""
par WiredNetWithDHCP.switch.eth[6].phys$o.channel typename "\"ned.IdealChannel\""
par WiredNetWithDHCP.switch.ethg$i[6].channel typename "\"ned.IdealChannel\""
par WiredNetWithDHCP.switch.eth[7].phys$o.channel typename "\"ned.IdealChannel\""
par WiredNetWithDHCP.switch.ethg$i[7].channel typename "\"ned.IdealChannel\""
par WiredNetWithDHCP.switch.eth[8].phys$o.channel typename "\"ned.IdealChannel\""
par WiredNetWithDHCP.switch.ethg$i[8].channel typename "\"ned.IdealChannel\""
par WiredNetWithDHCP.switch.eth[9].phys$o.channel typename "\"ned.IdealChannel\""
par WiredNetWithDHCP.switch.ethg$i[9].channel typename "\"ned.IdealChannel\""
par WiredNetWithDHCP.switch.eth[10].phys$o.channel typename "\"ned.IdealChannel\""
par WiredNetWithDHCP.switch.ethg$i[10].channel typename "\"ned.IdealChannel\""
par WiredNetWithDHCP.switch.macTable typename "\"inet.linklayer.ethernet.common.MacForwardingTable\""
par WiredNetWithDHCP.switch.macTable agingTime 120s
attr unit s
par WiredNetWithDHCP.switch.macTable forwardingTable []
attr mutable ""
par WiredNetWithDHCP.switch.macTable forwardingTableFile "\"\""
par WiredNetWithDHCP.switch.macTable interfaceTableModule "\"WiredNetWithDHCP.switch.interfaceTable\""
par WiredNetWithDHCP.switch.macTable displayStringTextFormat "\"addr: %a\\nvlan: %v\""
par WiredNetWithDHCP.switch.interfaceTable typename "\"inet.networklayer.common.InterfaceTable\""
par WiredNetWithDHCP.switch.interfaceTable displayAddresses false
par WiredNetWithDHCP.switch.sc typename "\"inet.common.MessageDispatcher\""
par WiredNetWithDHCP.switch.sc displayStringTextFormat "\"processed %p pk (%l)\""
par WiredNetWithDHCP.switch.sc forwardServiceRegistration true
par WiredNetWithDHCP.switch.sc forwardProtocolRegistration true
par WiredNetWithDHCP.switch.llc typename "\"inet.linklayer.ieee8022.Ieee8022Llc\""
par WiredNetWithDHCP.switch.llc registerProtocol true
par WiredNetWithDHCP.switch.cb typename "\"inet.common.MessageDispatcher\""
par WiredNetWithDHCP.switch.cb displayStringTextFormat "\"processed %p pk (%l)\""
par WiredNetWithDHCP.switch.cb forwardServiceRegistration true
par WiredNetWithDHCP.switch.cb forwardProtocolRegistration true
par WiredNetWithDHCP.switch.bridging typename "\"inet.linklayer.ieee8021d.relay.Ieee8021dRelay\""
par WiredNetWithDHCP.switch.bridging macTableModule "\"WiredNetWithDHCP.switch.macTable\""
par WiredNetWithDHCP.switch.bridging interfaceTableModule "\"WiredNetWithDHCP.switch.interfaceTable\""
par WiredNetWithDHCP.switch.bridging displayStringTextFormat "\"proc: %p\\ndisc: %d\""
scalar WiredNetWithDHCP.switch.bridging "processed frames" 0
scalar WiredNetWithDHCP.switch.bridging "discarded frames" 0
scalar WiredNetWithDHCP.switch.bridging "number of received BPDUs from STP module" 0
scalar WiredNetWithDHCP.switch.bridging "number of received frames from network (including BPDUs)" 2
scalar WiredNetWithDHCP.switch.bridging "number of dropped frames (including BPDUs)" 0
scalar WiredNetWithDHCP.switch.bridging "number of delivered BPDUs to the STP module" 0
scalar WiredNetWithDHCP.switch.bridging "number of dispatched BPDU frames to the network" 0
scalar WiredNetWithDHCP.switch.bridging "number of dispatched non-BDPU frames to the network" 0
scalar WiredNetWithDHCP.switch.bridging packetDropped:count 0
attr interpolationmode none
attr recordingmode count
attr title "packets dropped, count"
scalar WiredNetWithDHCP.switch.bridging packetDropped:sum(packetBytes) 0
attr interpolationmode none
attr recordingmode sum(packetBytes)
attr title "packets dropped, sum(packetBytes)"
par WiredNetWithDHCP.switch.bl typename "\"inet.common.MessageDispatcher\""
par WiredNetWithDHCP.switch.bl displayStringTextFormat "\"processed %p pk (%l)\""
par WiredNetWithDHCP.switch.bl forwardServiceRegistration true
par WiredNetWithDHCP.switch.bl forwardProtocolRegistration true
par WiredNetWithDHCP.switch.ethernet typename "\"inet.linklayer.ethernet.basic.EthernetEncapsulation\""
par WiredNetWithDHCP.switch.ethernet registerProtocol true
par WiredNetWithDHCP.switch.ethernet interfaceTableModule "\"WiredNetWithDHCP.switch.interfaceTable\""
par WiredNetWithDHCP.switch.ethernet fcsMode "\"declared\""
attr enum declared,computed
par WiredNetWithDHCP.switch.ethernet stopOperationExtraTime -1s
attr unit s
par WiredNetWithDHCP.switch.ethernet stopOperationTimeout 2s
attr unit s
scalar WiredNetWithDHCP.switch.ethernet pauseSent:count 0
attr recordingmode count
attr title "pause sent, count"
scalar WiredNetWithDHCP.switch.ethernet pauseSent:sum 0
attr recordingmode sum
attr title "pause sent, sum"
scalar WiredNetWithDHCP.switch.ethernet decapPk:count 2
attr interpolationmode none
attr recordingmode count
attr source decapPk
attr title "packets decapsulated, count"
scalar WiredNetWithDHCP.switch.ethernet decapPk:sum(packetBytes) 601
attr interpolationmode none
attr recordingmode sum(packetBytes)
attr source decapPk
attr title "packets decapsulated, sum(packetBytes)"
scalar WiredNetWithDHCP.switch.ethernet encapPk:count 20
attr interpolationmode none
attr recordingmode count
attr source encapPk
attr title "packets encapsulated, count"
scalar WiredNetWithDHCP.switch.ethernet encapPk:sum(packetBytes) 6010
attr interpolationmode none
attr recordingmode sum(packetBytes)
attr source encapPk
attr title "packets encapsulated, sum(packetBytes)"
par WiredNetWithDHCP.switch.ieee8021q.qTagHeaderInserter.out.channel typename "\"ned.IdealChannel\""
par WiredNetWithDHCP.switch.ieee8021q.lowerLayerIn.channel typename "\"ned.IdealChannel\""
par WiredNetWithDHCP.switch.ieee8021q.upperLayerIn.channel typename "\"ned.IdealChannel\""
par WiredNetWithDHCP.switch.ieee8021q.qTagHeaderChecker.out.channel typename "\"ned.IdealChannel\""
par WiredNetWithDHCP.switch.ieee8021q.qTagHeaderInserter typename "\"inet.linklayer.ieee8021q.Ieee8021qTagEpdHeaderInserter\""
par WiredNetWithDHCP.switch.ieee8021q.qTagHeaderInserter displayStringTextFormat "\"processed %p pk (%l)\""
par WiredNetWithDHCP.switch.ieee8021q.qTagHeaderInserter vlanTagType "\"c\""
attr enum c,s
par WiredNetWithDHCP.switch.ieee8021q.qTagHeaderInserter nextProtocol "\"ethernetmac\""
par WiredNetWithDHCP.switch.ieee8021q.qTagHeaderInserter defaultVlanId -1
par WiredNetWithDHCP.switch.ieee8021q.qTagHeaderInserter defaultPcp -1
par WiredNetWithDHCP.switch.ieee8021q.qTagHeaderInserter defaultUserPriority -1
par WiredNetWithDHCP.switch.ieee8021q.qTagHeaderInserter defaultDropEligible -1
scalar WiredNetWithDHCP.switch.ieee8021q.qTagHeaderInserter outgoingPackets:count 0
attr recordingmode count
attr source "merge(packetPushedOut, packetPulledOut)"
attr title "outgoing packets, count"
attr unit pk
scalar WiredNetWithDHCP.switch.ieee8021q.qTagHeaderInserter outgoingPacketLengths:sum 0
attr interpolationmode none
attr recordingmode sum
attr source "packetLength(merge(packetPushedOut, packetPulledOut))"
attr title "outgoing packet lengths, sum"
attr unit b
statistic WiredNetWithDHCP.switch.ieee8021q.qTagHeaderInserter outgoingPacketLengths:histogram
field count 0
field mean -nan
field stddev nan
field min nan
field max nan
field sum 0
field sqrsum 0
attr interpolationmode none
attr recordingmode histogram
attr source "packetLength(merge(packetPushedOut, packetPulledOut))"
attr title "outgoing packet lengths"
attr unit b
bin	-inf	0
bin	0	0
bin	1	0
scalar WiredNetWithDHCP.switch.ieee8021q.qTagHeaderInserter flowOutgoingPacketLengths:sum 0
attr interpolationmode none
attr recordingmode sum
attr source "packetLength(demuxFlow(merge(packetPushedOut, packetPulledOut)))"
attr title "flow specific outgoing packet lengths, sum"
attr unit b
statistic WiredNetWithDHCP.switch.ieee8021q.qTagHeaderInserter flowOutgoingPacketLengths:histogram
field count 0
field mean -nan
field stddev nan
field min nan
field max nan
field sum 0
field sqrsum 0
attr interpolationmode none
attr recordingmode histogram
attr source "packetLength(demuxFlow(merge(packetPushedOut, packetPulledOut)))"
attr title "flow specific outgoing packet lengths"
attr unit b
bin	-inf	0
bin	0	0
bin	1	0
scalar WiredNetWithDHCP.switch.ieee8021q.qTagHeaderInserter incomingPackets:count 0
attr recordingmode count
attr source "merge(packetPushedIn, packetPulledIn)"
attr title "incoming packets, count"
attr unit pk
scalar WiredNetWithDHCP.switch.ieee8021q.qTagHeaderInserter incomingPacketLengths:sum 0
attr interpolationmode none
attr recordingmode sum
attr source "packetLength(merge(packetPushedIn, packetPulledIn))"
attr title "incoming packet lengths, sum"
attr unit b
statistic WiredNetWithDHCP.switch.ieee8021q.qTagHeaderInserter incomingPacketLengths:histogram
field count 0
field mean -nan
field stddev nan
field min nan
field max nan
field sum 0
field sqrsum 0
attr interpolationmode none
attr recordingmode histogram
attr source "packetLength(merge(packetPushedIn, packetPulledIn))"
attr title "incoming packet lengths"
attr unit b
bin	-inf	0
bin	0	0
bin	1	0
scalar WiredNetWithDHCP.switch.ieee8021q.qTagHeaderInserter flowIncomingPacketLengths:sum 0
attr interpolationmode none
attr recordingmode sum
attr source "packetLength(demuxFlow(merge(packetPushedIn, packetPulledIn)))"
attr title "flow specific incoming packet lengths, sum"
attr unit b
statistic WiredNetWithDHCP.switch.ieee8021q.qTagHeaderInserter flowIncomingPacketLengths:histogram
field count 0
field mean -nan
field stddev nan
field min nan
field max nan
field sum 0
field sqrsum 0
attr interpolationmode none
attr recordingmode histogram
attr source "packetLength(demuxFlow(merge(packetPushedIn, packetPulledIn)))"
attr title "flow specific incoming packet lengths"
attr unit b
bin	-inf	0
bin	0	0
bin	1	0
par WiredNetWithDHCP.switch.ieee8021q.qTagHeaderChecker typename "\"inet.linklayer.ieee8021q.Ieee8021qTagEpdHeaderChecker\""
par WiredNetWithDHCP.switch.ieee8021q.qTagHeaderChecker displayStringTextFormat "\"dropped %d/%p pk (%k/%l)\""
par WiredNetWithDHCP.switch.ieee8021q.qTagHeaderChecker backpressure false
par WiredNetWithDHCP.switch.ieee8021q.qTagHeaderChecker vlanTagType "\"c\""
attr enum c,s
par WiredNetWithDHCP.switch.ieee8021q.qTagHeaderChecker vlanIdFilter []
attr mutable ""
scalar WiredNetWithDHCP.switch.ieee8021q.qTagHeaderChecker outgoingPackets:count 0
attr recordingmode count
attr source "merge(packetPushedOut, packetPulledOut)"
attr title "outgoing packets, count"
attr unit pk
scalar WiredNetWithDHCP.switch.ieee8021q.qTagHeaderChecker outgoingPacketLengths:sum 0
attr interpolationmode none
attr recordingmode sum
attr source "packetLength(merge(packetPushedOut, packetPulledOut))"
attr title "outgoing packet lengths, sum"
attr unit b
statistic WiredNetWithDHCP.switch.ieee8021q.qTagHeaderChecker outgoingPacketLengths:histogram
field count 0
field mean -nan
field stddev nan
field min nan
field max nan
field sum 0
field sqrsum 0
attr interpolationmode none
attr recordingmode histogram
attr source "packetLength(merge(packetPushedOut, packetPulledOut))"
attr title "outgoing packet lengths"
attr unit b
bin	-inf	0
bin	0	0
bin	1	0
scalar WiredNetWithDHCP.switch.ieee8021q.qTagHeaderChecker flowOutgoingPacketLengths:sum 0
attr interpolationmode none
attr recordingmode sum
attr source "packetLength(demuxFlow(merge(packetPushedOut, packetPulledOut)))"
attr title "flow specific outgoing packet lengths, sum"
attr unit b
statistic WiredNetWithDHCP.switch.ieee8021q.qTagHeaderChecker flowOutgoingPacketLengths:histogram
field count 0
field mean -nan
field stddev nan
field min nan
field max nan
field sum 0
field sqrsum 0
attr interpolationmode none
attr recordingmode histogram
attr source "packetLength(demuxFlow(merge(packetPushedOut, packetPulledOut)))"
attr title "flow specific outgoing packet lengths"
attr unit b
bin	-inf	0
bin	0	0
bin	1	0
scalar WiredNetWithDHCP.switch.ieee8021q.qTagHeaderChecker incomingPackets:count 0
attr recordingmode count
attr source "merge(packetPushedIn, packetPulledIn)"
attr title "incoming packets, count"
attr unit pk
scalar WiredNetWithDHCP.switch.ieee8021q.qTagHeaderChecker incomingPacketLengths:sum 0
attr interpolationmode none
attr recordingmode sum
attr source "packetLength(merge(packetPushedIn, packetPulledIn))"
attr title "incoming packet lengths, sum"
attr unit b
statistic WiredNetWithDHCP.switch.ieee8021q.qTagHeaderChecker incomingPacketLengths:histogram
field count 0
field mean -nan
field stddev nan
field min nan
field max nan
field sum 0
field sqrsum 0
attr interpolationmode none
attr recordingmode histogram
attr source "packetLength(merge(packetPushedIn, packetPulledIn))"
attr title "incoming packet lengths"
attr unit b
bin	-inf	0
bin	0	0
bin	1	0
scalar WiredNetWithDHCP.switch.ieee8021q.qTagHeaderChecker flowIncomingPacketLengths:sum 0
attr interpolationmode none
attr recordingmode sum
attr source "packetLength(demuxFlow(merge(packetPushedIn, packetPulledIn)))"
attr title "flow specific incoming packet lengths, sum"
attr unit b
statistic WiredNetWithDHCP.switch.ieee8021q.qTagHeaderChecker flowIncomingPacketLengths:histogram
field count 0
field mean -nan
field stddev nan
field min nan
field max nan
field sum 0
field sqrsum 0
attr interpolationmode none
attr recordingmode histogram
attr source "packetLength(demuxFlow(merge(packetPushedIn, packetPulledIn)))"
attr title "flow specific incoming packet lengths"
attr unit b
bin	-inf	0
bin	0	0
bin	1	0
scalar WiredNetWithDHCP.switch.ieee8021q.qTagHeaderChecker droppedPackets:count 0
attr recordingmode count
attr source packetDropped
attr title "dropped packets, count"
attr unit pk
scalar WiredNetWithDHCP.switch.ieee8021q.qTagHeaderChecker droppedPacketLengths:sum 0
attr interpolationmode none
attr recordingmode sum
attr source packetLength(packetDropped)
attr title "dropped packet lengths, sum"
attr unit b
statistic WiredNetWithDHCP.switch.ieee8021q.qTagHeaderChecker droppedPacketLengths:histogram
field count 0
field mean -nan
field stddev nan
field min nan
field max nan
field sum 0
field sqrsum 0
attr interpolationmode none
attr recordingmode histogram
attr source packetLength(packetDropped)
attr title "dropped packet lengths"
attr unit b
bin	-inf	0
bin	0	0
bin	1	0
scalar WiredNetWithDHCP.switch.ieee8021q.qTagHeaderChecker flowDroppedPacketLengths:sum 0
attr interpolationmode none
attr recordingmode sum
attr source packetLength(demuxFlow(packetDropped))
attr title "flow specific dropped packet lengths, sum"
attr unit b
statistic WiredNetWithDHCP.switch.ieee8021q.qTagHeaderChecker flowDroppedPacketLengths:histogram
field count 0
field mean -nan
field stddev nan
field min nan
field max nan
field sum 0
field sqrsum 0
attr interpolationmode none
attr recordingmode histogram
attr source packetLength(demuxFlow(packetDropped))
attr title "flow specific dropped packet lengths"
attr unit b
bin	-inf	0
bin	0	0
bin	1	0
par WiredNetWithDHCP.switch.ieee8021q typename "\"inet.linklayer.ieee8021q.Ieee8021qProtocol\""
par WiredNetWithDHCP.switch.ieee8021q vlanTagType "\"c\""
par WiredNetWithDHCP.switch.ieee8021q hasSocketSupport false
par WiredNetWithDHCP.switch.ieee8021r.upperLayerIn.channel typename "\"ned.IdealChannel\""
par WiredNetWithDHCP.switch.ieee8021r.rTagHeaderInserter.out.channel typename "\"ned.IdealChannel\""
par WiredNetWithDHCP.switch.ieee8021r.lowerLayerIn.channel typename "\"ned.IdealChannel\""
par WiredNetWithDHCP.switch.ieee8021r.rTagHeaderChecker.out.channel typename "\"ned.IdealChannel\""
par WiredNetWithDHCP.switch.ieee8021r.rTagHeaderInserter typename "\"inet.linklayer.ieee8021r.Ieee8021rTagEpdHeaderInserter\""
par WiredNetWithDHCP.switch.ieee8021r.rTagHeaderInserter displayStringTextFormat "\"processed %p pk (%l)\""
par WiredNetWithDHCP.switch.ieee8021r.rTagHeaderInserter nextProtocol "\"ieee8021qctag\""
scalar WiredNetWithDHCP.switch.ieee8021r.rTagHeaderInserter outgoingPackets:count 0
attr recordingmode count
attr source "merge(packetPushedOut, packetPulledOut)"
attr title "outgoing packets, count"
attr unit pk
scalar WiredNetWithDHCP.switch.ieee8021r.rTagHeaderInserter outgoingPacketLengths:sum 0
attr interpolationmode none
attr recordingmode sum
attr source "packetLength(merge(packetPushedOut, packetPulledOut))"
attr title "outgoing packet lengths, sum"
attr unit b
statistic WiredNetWithDHCP.switch.ieee8021r.rTagHeaderInserter outgoingPacketLengths:histogram
field count 0
field mean -nan
field stddev nan
field min nan
field max nan
field sum 0
field sqrsum 0
attr interpolationmode none
attr recordingmode histogram
attr source "packetLength(merge(packetPushedOut, packetPulledOut))"
attr title "outgoing packet lengths"
attr unit b
bin	-inf	0
bin	0	0
bin	1	0
scalar WiredNetWithDHCP.switch.ieee8021r.rTagHeaderInserter flowOutgoingPacketLengths:sum 0
attr interpolationmode none
attr recordingmode sum
attr source "packetLength(demuxFlow(merge(packetPushedOut, packetPulledOut)))"
attr title "flow specific outgoing packet lengths, sum"
attr unit b
statistic WiredNetWithDHCP.switch.ieee8021r.rTagHeaderInserter flowOutgoingPacketLengths:histogram
field count 0
field mean -nan
field stddev nan
field min nan
field max nan
field sum 0
field sqrsum 0
attr interpolationmode none
attr recordingmode histogram
attr source "packetLength(demuxFlow(merge(packetPushedOut, packetPulledOut)))"
attr title "flow specific outgoing packet lengths"
attr unit b
bin	-inf	0
bin	0	0
bin	1	0
scalar WiredNetWithDHCP.switch.ieee8021r.rTagHeaderInserter incomingPackets:count 0
attr recordingmode count
attr source "merge(packetPushedIn, packetPulledIn)"
attr title "incoming packets, count"
attr unit pk
scalar WiredNetWithDHCP.switch.ieee8021r.rTagHeaderInserter incomingPacketLengths:sum 0
attr interpolationmode none
attr recordingmode sum
attr source "packetLength(merge(packetPushedIn, packetPulledIn))"
attr title "incoming packet lengths, sum"
attr unit b
statistic WiredNetWithDHCP.switch.ieee8021r.rTagHeaderInserter incomingPacketLengths:histogram
field count 0
field mean -nan
field stddev nan
field min nan
field max nan
field sum 0
field sqrsum 0
attr interpolationmode none
attr recordingmode histogram
attr source "packetLength(merge(packetPushedIn, packetPulledIn))"
attr title "incoming packet lengths"
attr unit b
bin	-inf	0
bin	0	0
bin	1	0
scalar WiredNetWithDHCP.switch.ieee8021r.rTagHeaderInserter flowIncomingPacketLengths:sum 0
attr interpolationmode none
attr recordingmode sum
attr source "packetLength(demuxFlow(merge(packetPushedIn, packetPulledIn)))"
attr title "flow specific incoming packet lengths, sum"
attr unit b
statistic WiredNetWithDHCP.switch.ieee8021r.rTagHeaderInserter flowIncomingPacketLengths:histogram
field count 0
field mean -nan
field stddev nan
field min nan
field max nan
field sum 0
field sqrsum 0
attr interpolationmode none
attr recordingmode histogram
attr source "packetLength(demuxFlow(merge(packetPushedIn, packetPulledIn)))"
attr title "flow specific incoming packet lengths"
attr unit b
bin	-inf	0
bin	0	0
bin	1	0
par WiredNetWithDHCP.switch.ieee8021r.rTagHeaderChecker typename "\"inet.linklayer.ieee8021r.Ieee8021rTagEpdHeaderChecker\""
par WiredNetWithDHCP.switch.ieee8021r.rTagHeaderChecker displayStringTextFormat "\"dropped %d/%p pk (%k/%l)\""
par WiredNetWithDHCP.switch.ieee8021r.rTagHeaderChecker backpressure false
scalar WiredNetWithDHCP.switch.ieee8021r.rTagHeaderChecker outgoingPackets:count 0
attr recordingmode count
attr source "merge(packetPushedOut, packetPulledOut)"
attr title "outgoing packets, count"
attr unit pk
scalar WiredNetWithDHCP.switch.ieee8021r.rTagHeaderChecker outgoingPacketLengths:sum 0
attr interpolationmode none
attr recordingmode sum
attr source "packetLength(merge(packetPushedOut, packetPulledOut))"
attr title "outgoing packet lengths, sum"
attr unit b
statistic WiredNetWithDHCP.switch.ieee8021r.rTagHeaderChecker outgoingPacketLengths:histogram
field count 0
field mean -nan
field stddev nan
field min nan
field max nan
field sum 0
field sqrsum 0
attr interpolationmode none
attr recordingmode histogram
attr source "packetLength(merge(packetPushedOut, packetPulledOut))"
attr title "outgoing packet lengths"
attr unit b
bin	-inf	0
bin	0	0
bin	1	0
scalar WiredNetWithDHCP.switch.ieee8021r.rTagHeaderChecker flowOutgoingPacketLengths:sum 0
attr interpolationmode none
attr recordingmode sum
attr source "packetLength(demuxFlow(merge(packetPushedOut, packetPulledOut)))"
attr title "flow specific outgoing packet lengths, sum"
attr unit b
statistic WiredNetWithDHCP.switch.ieee8021r.rTagHeaderChecker flowOutgoingPacketLengths:histogram
field count 0
field mean -nan
field stddev nan
field min nan
field max nan
field sum 0
field sqrsum 0
attr interpolationmode none
attr recordingmode histogram
attr source "packetLength(demuxFlow(merge(packetPushedOut, packetPulledOut)))"
attr title "flow specific outgoing packet lengths"
attr unit b
bin	-inf	0
bin	0	0
bin	1	0
scalar WiredNetWithDHCP.switch.ieee8021r.rTagHeaderChecker incomingPackets:count 0
attr recordingmode count
attr source "merge(packetPushedIn, packetPulledIn)"
attr title "incoming packets, count"
attr unit pk
scalar WiredNetWithDHCP.switch.ieee8021r.rTagHeaderChecker incomingPacketLengths:sum 0
attr interpolationmode none
attr recordingmode sum
attr source "packetLength(merge(packetPushedIn, packetPulledIn))"
attr title "incoming packet lengths, sum"
attr unit b
statistic WiredNetWithDHCP.switch.ieee8021r.rTagHeaderChecker incomingPacketLengths:histogram
field count 0
field mean -nan
field stddev nan
field min nan
field max nan
field sum 0
field sqrsum 0
attr interpolationmode none
attr recordingmode histogram
attr source "packetLength(merge(packetPushedIn, packetPulledIn))"
attr title "incoming packet lengths"
attr unit b
bin	-inf	0
bin	0	0
bin	1	0
scalar WiredNetWithDHCP.switch.ieee8021r.rTagHeaderChecker flowIncomingPacketLengths:sum 0
attr interpolationmode none
attr recordingmode sum
attr source "packetLength(demuxFlow(merge(packetPushedIn, packetPulledIn)))"
attr title "flow specific incoming packet lengths, sum"
attr unit b
statistic WiredNetWithDHCP.switch.ieee8021r.rTagHeaderChecker flowIncomingPacketLengths:histogram
field count 0
field mean -nan
field stddev nan
field min nan
field max nan
field sum 0
field sqrsum 0
attr interpolationmode none
attr recordingmode histogram
attr source "packetLength(demuxFlow(merge(packetPushedIn, packetPulledIn)))"
attr title "flow specific incoming packet lengths"
attr unit b
bin	-inf	0
bin	0	0
bin	1	0
scalar WiredNetWithDHCP.switch.ieee8021r.rTagHeaderChecker droppedPackets:count 0
attr recordingmode count
attr source packetDropped
attr title "dropped packets, count"
attr unit pk
scalar WiredNetWithDHCP.switch.ieee8021r.rTagHeaderChecker droppedPacketLengths:sum 0
attr interpolationmode none
attr recordingmode sum
attr source packetLength(packetDropped)
attr title "dropped packet lengths, sum"
attr unit b
statistic WiredNetWithDHCP.switch.ieee8021r.rTagHeaderChecker droppedPacketLengths:histogram
field count 0
field mean -nan
field stddev nan
field min nan
field max nan
field sum 0
field sqrsum 0
attr interpolationmode none
attr recordingmode histogram
attr source packetLength(packetDropped)
attr title "dropped packet lengths"
attr unit b
bin	-inf	0
bin	0	0
bin	1	0
scalar WiredNetWithDHCP.switch.ieee8021r.rTagHeaderChecker flowDroppedPacketLengths:sum 0
attr interpolationmode none
attr recordingmode sum
attr source packetLength(demuxFlow(packetDropped))
attr title "flow specific dropped packet lengths, sum"
attr unit b
statistic WiredNetWithDHCP.switch.ieee8021r.rTagHeaderChecker flowDroppedPacketLengths:histogram
field count 0
field mean -nan
field stddev nan
field min nan
field max nan
field sum 0
field sqrsum 0
attr interpolationmode none
attr recordingmode histogram
attr source packetLength(demuxFlow(packetDropped))
attr title "flow specific dropped packet lengths"
attr unit b
bin	-inf	0
bin	0	0
bin	1	0
par WiredNetWithDHCP.switch.ieee8021r typename "\"inet.linklayer.ieee8021r.Ieee8021rProtocol\""
par WiredNetWithDHCP.switch.li typename "\"inet.common.MessageDispatcher\""
par WiredNetWithDHCP.switch.li displayStringTextFormat "\"processed %p pk (%l)\""
par WiredNetWithDHCP.switch.li forwardServiceRegistration true
par WiredNetWithDHCP.switch.li forwardProtocolRegistration true
par WiredNetWithDHCP.switch.eth[0].mac.phys$o.channel typename "\"ned.IdealChannel\""
par WiredNetWithDHCP.switch.eth[0].phys$i.channel typename "\"ned.IdealChannel\""
par WiredNetWithDHCP.switch.eth[0].upperLayerIn.channel typename "\"ned.IdealChannel\""
par WiredNetWithDHCP.switch.eth[0].mac.upperLayerOut.channel typename "\"ned.IdealChannel\""
par WiredNetWithDHCP.switch.eth[0].queue typename "\"inet.linklayer.ethernet.common.EthernetQueue\""
par WiredNetWithDHCP.switch.eth[0].queue displayStringTextFormat "\"contains %p pk (%l) pushed %u\\npulled %o removed %r dropped %d\""
par WiredNetWithDHCP.switch.eth[0].queue packetCapacity 1000
par WiredNetWithDHCP.switch.eth[0].queue dataCapacity -1b
attr unit b
par WiredNetWithDHCP.switch.eth[0].queue dropperClass "\"inet::queueing::PacketAtCollectionEndDropper\""
par WiredNetWithDHCP.switch.eth[0].queue comparatorClass "\"inet::EthernetFrameTypeComparator\""
par WiredNetWithDHCP.switch.eth[0].queue bufferModule "\"\""
scalar WiredNetWithDHCP.switch.eth[0].queue queueLength:last 0
attr autoWarmupFilter false
attr interpolationmode sample-hold
attr recordingmode last
attr source "warmup(atomic(constant0(packetPushEnded) + count(packetPushStarted) - count(packetPulled) - count(packetRemoved) - count(packetDropped)))"
attr title "queue length, last"
attr unit pk
scalar WiredNetWithDHCP.switch.eth[0].queue queueLength:max 0
attr autoWarmupFilter false
attr interpolationmode sample-hold
attr recordingmode max
attr source "warmup(atomic(constant0(packetPushEnded) + count(packetPushStarted) - count(packetPulled) - count(packetRemoved) - count(packetDropped)))"
attr title "queue length, max"
attr unit pk
scalar WiredNetWithDHCP.switch.eth[0].queue queueLength:timeavg 0
attr autoWarmupFilter false
attr interpolationmode sample-hold
attr recordingmode timeavg
attr source "warmup(atomic(constant0(packetPushEnded) + count(packetPushStarted) - count(packetPulled) - count(packetRemoved) - count(packetDropped)))"
attr title "queue length, timeavg"
attr unit pk
scalar WiredNetWithDHCP.switch.eth[0].queue queueBitLength:last 0
attr autoWarmupFilter false
attr interpolationmode sample-hold
attr recordingmode last
attr source "warmup(atomic(constant0(packetPushEnded) + sum(packetLength(packetPushStarted)) - sum(packetLength(packetPulled)) - sum(packetLength(packetRemoved)) - sum(packetLength(packetDropped))))"
attr title "queue bit length, last"
attr unit b
scalar WiredNetWithDHCP.switch.eth[0].queue queueBitLength:max 0
attr autoWarmupFilter false
attr interpolationmode sample-hold
attr recordingmode max
attr source "warmup(atomic(constant0(packetPushEnded) + sum(packetLength(packetPushStarted)) - sum(packetLength(packetPulled)) - sum(packetLength(packetRemoved)) - sum(packetLength(packetDropped))))"
attr title "queue bit length, max"
attr unit b
scalar WiredNetWithDHCP.switch.eth[0].queue queueBitLength:timeavg 0
attr autoWarmupFilter false
attr interpolationmode sample-hold
attr recordingmode timeavg
attr source "warmup(atomic(constant0(packetPushEnded) + sum(packetLength(packetPushStarted)) - sum(packetLength(packetPulled)) - sum(packetLength(packetRemoved)) - sum(packetLength(packetDropped))))"
attr title "queue bit length, timeavg"
attr unit b
statistic WiredNetWithDHCP.switch.eth[0].queue queueingTime:histogram
field count 1
field mean 0
field stddev nan
field min 0
field max 0
field sum 0
field sqrsum 0
attr interpolationmode none
attr recordingmode histogram
attr source queueingTime(packetPulled)
attr title "queueing times"
attr unit s
bin	-inf	0
bin	-0.5	0
bin	-0.48	0
bin	-0.46	0
bin	-0.44	0
bin	-0.42	0
bin	-0.4	0
bin	-0.38	0
bin	-0.36	0
bin	-0.34	0
bin	-0.32	0
bin	-0.3	0
bin	-0.28	0
bin	-0.26	0
bin	-0.24	0
bin	-0.22	0
bin	-0.2	0
bin	-0.18	0
bin	-0.16	0
bin	-0.14	0
bin	-0.12	0
bin	-0.1	0
bin	-0.08	0
bin	-0.06	0
bin	-0.04	0
bin	-0.02	0
bin	0	1
bin	0.02	0
bin	0.04	0
bin	0.06	0
bin	0.08	0
bin	0.1	0
bin	0.12	0
bin	0.14	0
bin	0.16	0
bin	0.18	0
bin	0.2	0
bin	0.22	0
bin	0.24	0
bin	0.26	0
bin	0.28	0
bin	0.3	0
bin	0.32	0
bin	0.34	0
bin	0.36	0
bin	0.38	0
bin	0.4	0
bin	0.42	0
bin	0.44	0
bin	0.46	0
bin	0.48	0
bin	0.5	0
scalar WiredNetWithDHCP.switch.eth[0].queue outgoingPackets:count 1
attr recordingmode count
attr source packetPulled
attr title "outgoing packets, count"
attr unit pk
scalar WiredNetWithDHCP.switch.eth[0].queue outgoingPacketLengths:sum 2440
attr interpolationmode none
attr recordingmode sum
attr source packetLength(packetPulled)
attr title "outgoing packet lengths, sum"
attr unit b
statistic WiredNetWithDHCP.switch.eth[0].queue outgoingPacketLengths:histogram
field count 1
field mean 2440
field stddev nan
field min 2440
field max 2440
field sum 2440
field sqrsum 5953600
attr interpolationmode none
attr recordingmode histogram
attr source packetLength(packetPulled)
attr title "outgoing packet lengths"
attr unit b
bin	-inf	0
bin	2439	0
bin	2440	1
bin	2441	0
statistic WiredNetWithDHCP.switch.eth[0].queue flowQueueingTime:histogram
field count 0
field mean -nan
field stddev nan
field min nan
field max nan
field sum 0
field sqrsum 0
attr interpolationmode none
attr recordingmode histogram
attr source queueingTime(demuxFlow(packetPulled))
attr title "flow queueing times"
attr unit s
bin	-inf	0
bin	0	0
bin	1	0
scalar WiredNetWithDHCP.switch.eth[0].queue incomingPackets:count 1
attr recordingmode count
attr source packetPushStarted
attr title "incoming packets, count"
attr unit pk
scalar WiredNetWithDHCP.switch.eth[0].queue incomingPacketLengths:sum 2440
attr interpolationmode none
attr recordingmode sum
attr source packetLength(packetPushStarted)
attr title "incoming packet lengths, sum"
attr unit b
statistic WiredNetWithDHCP.switch.eth[0].queue incomingPacketLengths:histogram
field count 1
field mean 2440
field stddev nan
field min 2440
field max 2440
field sum 2440
field sqrsum 5953600
attr interpolationmode none
attr recordingmode histogram
attr source packetLength(packetPushStarted)
attr title "incoming packet lengths"
attr unit b
bin	-inf	0
bin	2439	0
bin	2440	1
bin	2441	0
scalar WiredNetWithDHCP.switch.eth[0].queue droppedPacketsQueueOverflow:count 0
attr interpolationmode none
attr recordingmode count
attr source packetDropReasonIsQueueOverflow(packetDropped)
attr title "dropped packets: queue overflow, count"
attr unit pk
scalar WiredNetWithDHCP.switch.eth[0].queue droppedPacketLengthsQueueOverflow:sum 0
attr interpolationmode none
attr recordingmode sum
attr source packetLength(packetDropReasonIsQueueOverflow(packetDropped))
attr title "dropped packet lengths: queue overflow, sum"
attr unit b
par WiredNetWithDHCP.switch.eth[0].mac typename "\"inet.linklayer.ethernet.basic.EthernetMac\""
par WiredNetWithDHCP.switch.eth[0].mac interfaceTableModule "\"WiredNetWithDHCP.switch.interfaceTable\""
par WiredNetWithDHCP.switch.eth[0].mac displayStringTextFormat "\"rate: %b\\nsent: %s, rcvd: %r\\nqueue: %q, drop: %d\""
par WiredNetWithDHCP.switch.eth[0].mac sendRawBytes false
par WiredNetWithDHCP.switch.eth[0].mac promiscuous true
par WiredNetWithDHCP.switch.eth[0].mac duplexMode true
[...]
scalar WiredNetWithDHCP.client[9].eth[0].mac packetDropInterfaceDown:sum(packetBytes) 0
attr interpolationmode none
attr recordingmode sum(packetBytes)
attr source packetDropReasonIsInterfaceDown(packetDropped)
attr title "packet drop: interface down, sum(packetBytes)"
scalar WiredNetWithDHCP.client[9].eth[0].mac packetDropNotAddressedToUs:count 0
attr interpolationmode none
attr recordingmode count
attr source packetDropReasonIsNotAddressedToUs(packetDropped)
attr title "packet drop: not addressed to us, count"
scalar WiredNetWithDHCP.client[9].eth[0].mac packetDropNotAddressedToUs:sum(packetBytes) 0
attr interpolationmode none
attr recordingmode sum(packetBytes)
attr source packetDropReasonIsNotAddressedToUs(packetDropped)
attr title "packet drop: not addressed to us, sum(packetBytes)"
par WiredNetWithDHCP.client[9].eth[0] typename "\"inet.linklayer.ethernet.EthernetInterface\""
par WiredNetWithDHCP.client[9].eth[0] displayStringTextFormat "\"%a (%i)\\n%m\""
par WiredNetWithDHCP.client[9].eth[0] recordPcap false
par WiredNetWithDHCP.client[9].eth[0] numPcapRecorders 0
par WiredNetWithDHCP.client[9].eth[0] interfaceTableModule "\"WiredNetWithDHCP.client[9].interfaceTable\""
par WiredNetWithDHCP.client[9].eth[0] protocol "\"ethernetmac\""
par WiredNetWithDHCP.client[9].eth[0] address "\"0A-AA-00-00-00-16\""
attr mutable ""
par WiredNetWithDHCP.client[9].eth[0] duplexMode true
par WiredNetWithDHCP.client[9].eth[0] csmacdSupport false
par WiredNetWithDHCP.client[9].eth[0] bitrate 0bps
attr unit bps
par WiredNetWithDHCP.client[9].eth[0] fcsMode "\"declared\""
attr enum declared,computed
scalar WiredNetWithDHCP.client[9].eth[0] packetDropInterfaceDown:count 0
attr interpolationmode none
attr recordingmode count
attr source packetDropReasonIsInterfaceDown(packetDropped)
attr title "packet drops: interface down, count"
scalar WiredNetWithDHCP.client[9].eth[0] packetDropInterfaceDown:sum(packetBytes) 0
attr interpolationmode none
attr recordingmode sum(packetBytes)
attr source packetDropReasonIsInterfaceDown(packetDropped)
attr title "packet drops: interface down, sum(packetBytes)"
scalar WiredNetWithDHCP.client[9].eth[0] packetDropNoCarrier:count 0
attr interpolationmode none
attr recordingmode count
attr source packetDropReasonIsNoCarrier(packetDropped)
attr title "packet drops: no carrier, count"
scalar WiredNetWithDHCP.client[9].eth[0] packetDropNoCarrier:sum(packetBytes) 0
attr interpolationmode none
attr recordingmode sum(packetBytes)
attr source packetDropReasonIsNoCarrier(packetDropped)
attr title "packet drops: no carrier, sum(packetBytes)"
par WiredNetWithDHCP.client[9].ipv4.transportIn.channel typename "\"ned.IdealChannel\""
par WiredNetWithDHCP.client[9].ipv4.up.out[0].channel typename "\"ned.IdealChannel\""
par WiredNetWithDHCP.client[9].ipv4.lp.out[2].channel typename "\"ned.IdealChannel\""
par WiredNetWithDHCP.client[9].ipv4.ifIn.channel typename "\"ned.IdealChannel\""
par WiredNetWithDHCP.client[9].ipv4.configurator typename "\"inet.networklayer.configurator.ipv4.Ipv4NodeConfigurator\""
par WiredNetWithDHCP.client[9].ipv4.configurator interfaceTableModule "\"WiredNetWithDHCP.client[9].interfaceTable\""
par WiredNetWithDHCP.client[9].ipv4.configurator routingTableModule "\"WiredNetWithDHCP.client[9].ipv4.routingTable\""
par WiredNetWithDHCP.client[9].ipv4.configurator networkConfiguratorModule "\"configurator\""
par WiredNetWithDHCP.client[9].ipv4.configurator configureRoutingTable true
par WiredNetWithDHCP.client[9].ipv4.routingTable typename "\"inet.networklayer.ipv4.Ipv4RoutingTable\""
par WiredNetWithDHCP.client[9].ipv4.routingTable interfaceTableModule "\"WiredNetWithDHCP.client[9].interfaceTable\""
par WiredNetWithDHCP.client[9].ipv4.routingTable routerId "\"auto\""
par WiredNetWithDHCP.client[9].ipv4.routingTable netmaskRoutes "\"*\""
par WiredNetWithDHCP.client[9].ipv4.routingTable forwarding false
par WiredNetWithDHCP.client[9].ipv4.routingTable multicastForwarding false
par WiredNetWithDHCP.client[9].ipv4.routingTable useAdminDist false
par WiredNetWithDHCP.client[9].ipv4.routingTable routingFile "\"\""
par WiredNetWithDHCP.client[9].ipv4.natTable typename "\"inet.networklayer.ipv4.Ipv4NatTable\""
par WiredNetWithDHCP.client[9].ipv4.natTable networkProtocolModule "\"^.ip\""
par WiredNetWithDHCP.client[9].ipv4.natTable config "<config/> at content:1"
par WiredNetWithDHCP.client[9].ipv4.up typename "\"inet.common.MessageDispatcher\""
par WiredNetWithDHCP.client[9].ipv4.up displayStringTextFormat "\"processed %p pk (%l)\""
par WiredNetWithDHCP.client[9].ipv4.up forwardServiceRegistration true
par WiredNetWithDHCP.client[9].ipv4.up forwardProtocolRegistration true
par WiredNetWithDHCP.client[9].ipv4.igmp typename "\"inet.networklayer.ipv4.Igmpv2\""
par WiredNetWithDHCP.client[9].ipv4.igmp interfaceTableModule "\"WiredNetWithDHCP.client[9].interfaceTable\""
par WiredNetWithDHCP.client[9].ipv4.igmp routingTableModule "\"WiredNetWithDHCP.client[9].ipv4.routingTable\""
par WiredNetWithDHCP.client[9].ipv4.igmp crcMode "\"declared\""
attr enum declared,computed
par WiredNetWithDHCP.client[9].ipv4.igmp enabled true
par WiredNetWithDHCP.client[9].ipv4.igmp robustnessVariable 2
par WiredNetWithDHCP.client[9].ipv4.igmp queryInterval 125s
attr unit s
par WiredNetWithDHCP.client[9].ipv4.igmp queryResponseInterval 10s
attr unit s
par WiredNetWithDHCP.client[9].ipv4.igmp groupMembershipInterval 260s
attr unit s
par WiredNetWithDHCP.client[9].ipv4.igmp otherQuerierPresentInterval 255s
attr unit s
par WiredNetWithDHCP.client[9].ipv4.igmp startupQueryInterval 31.25s
attr unit s
par WiredNetWithDHCP.client[9].ipv4.igmp startupQueryCount 2
par WiredNetWithDHCP.client[9].ipv4.igmp lastMemberQueryInterval 1s
attr unit s
par WiredNetWithDHCP.client[9].ipv4.igmp lastMemberQueryCount 2
par WiredNetWithDHCP.client[9].ipv4.igmp unsolicitedReportInterval 10s
attr unit s
par WiredNetWithDHCP.client[9].ipv4.icmp typename "\"inet.networklayer.ipv4.Icmp\""
par WiredNetWithDHCP.client[9].ipv4.icmp interfaceTableModule "\"WiredNetWithDHCP.client[9].interfaceTable\""
par WiredNetWithDHCP.client[9].ipv4.icmp routingTableModule "\"WiredNetWithDHCP.client[9].ipv4.routingTable\""
par WiredNetWithDHCP.client[9].ipv4.icmp crcMode "\"declared\""
attr enum declared,computed
attr mutable ""
par WiredNetWithDHCP.client[9].ipv4.icmp quoteLength 8B
attr mutable ""
attr unit B
par WiredNetWithDHCP.client[9].ipv4.mp typename "\"inet.common.MessageDispatcher\""
par WiredNetWithDHCP.client[9].ipv4.mp displayStringTextFormat "\"processed %p pk (%l)\""
par WiredNetWithDHCP.client[9].ipv4.mp forwardServiceRegistration true
par WiredNetWithDHCP.client[9].ipv4.mp forwardProtocolRegistration true
par WiredNetWithDHCP.client[9].ipv4.ip typename "\"inet.networklayer.ipv4.Ipv4\""
par WiredNetWithDHCP.client[9].ipv4.ip interfaceTableModule "\"WiredNetWithDHCP.client[9].interfaceTable\""
par WiredNetWithDHCP.client[9].ipv4.ip routingTableModule "\"WiredNetWithDHCP.client[9].ipv4.routingTable\""
par WiredNetWithDHCP.client[9].ipv4.ip arpModule "\"WiredNetWithDHCP.client[9].ipv4.arp\""
par WiredNetWithDHCP.client[9].ipv4.ip icmpModule "\"WiredNetWithDHCP.client[9].ipv4.icmp\""
par WiredNetWithDHCP.client[9].ipv4.ip crcMode "\"declared\""
attr enum declared,computed
par WiredNetWithDHCP.client[9].ipv4.ip timeToLive 32
par WiredNetWithDHCP.client[9].ipv4.ip multicastTimeToLive 32
par WiredNetWithDHCP.client[9].ipv4.ip fragmentTimeout 60s
attr unit s
par WiredNetWithDHCP.client[9].ipv4.ip limitedBroadcast false
par WiredNetWithDHCP.client[9].ipv4.ip directBroadcastInterfaces "\"\""
scalar WiredNetWithDHCP.client[9].ipv4.ip packetDropAddressResolutionFailed:count 0
attr interpolationmode none
attr recordingmode count
attr source packetDropReasonIsAddressResolutionFailed(packetDropped)
attr title "packet drop: address resolution failed, count"
scalar WiredNetWithDHCP.client[9].ipv4.ip packetDropAddressResolutionFailed:sum(packetBytes) 0
attr interpolationmode none
attr recordingmode sum(packetBytes)
attr source packetDropReasonIsAddressResolutionFailed(packetDropped)
attr title "packet drop: address resolution failed, sum(packetBytes)"
scalar WiredNetWithDHCP.client[9].ipv4.ip packetDropHopLimitReached:count 0
attr interpolationmode none
attr recordingmode count
attr source packetDropReasonIsHopLimitReached(packetDropped)
attr title "packet drop: hop limit reached, count"
scalar WiredNetWithDHCP.client[9].ipv4.ip packetDropHopLimitReached:sum(packetBytes) 0
attr interpolationmode none
attr recordingmode sum(packetBytes)
attr source packetDropReasonIsHopLimitReached(packetDropped)
attr title "packet drop: hop limit reached, sum(packetBytes)"
scalar WiredNetWithDHCP.client[9].ipv4.ip packetDropForwardingDisabled:count 0
attr interpolationmode none
attr recordingmode count
attr source packetDropReasonIsForwardingDisabled(packetDropped)
attr title "packet drop: forwarding disabled, count"
scalar WiredNetWithDHCP.client[9].ipv4.ip packetDropForwardingDisabled:sum(packetBytes) 0
attr interpolationmode none
attr recordingmode sum(packetBytes)
attr source packetDropReasonIsForwardingDisabled(packetDropped)
attr title "packet drop: forwarding disabled, sum(packetBytes)"
scalar WiredNetWithDHCP.client[9].ipv4.ip packetDropNoInterfaceFound:count 0
attr interpolationmode none
attr recordingmode count
attr source packetDropReasonIsNoInterfaceFound(packetDropped)
attr title "packet drop: no interface found, count"
scalar WiredNetWithDHCP.client[9].ipv4.ip packetDropNoInterfaceFound:sum(packetBytes) 0
attr interpolationmode none
attr recordingmode sum(packetBytes)
attr source packetDropReasonIsNoInterfaceFound(packetDropped)
attr title "packet drop: no interface found, sum(packetBytes)"
scalar WiredNetWithDHCP.client[9].ipv4.ip packetDropNoRouteFound:count 0
attr interpolationmode none
attr recordingmode count
attr source packetDropReasonIsNoRouteFound(packetDropped)
attr title "packet drop: no route found, count"
scalar WiredNetWithDHCP.client[9].ipv4.ip packetDropNoRouteFound:sum(packetBytes) 0
attr interpolationmode none
attr recordingmode sum(packetBytes)
attr source packetDropReasonIsNoRouteFound(packetDropped)
attr title "packet drop: no route found, sum(packetBytes)"
scalar WiredNetWithDHCP.client[9].ipv4.ip packetDropUndefined:count 0
attr interpolationmode none
attr recordingmode count
attr source packetDropReasonIsUndefined(packetDropped)
attr title "packet drop: undefined, count"
scalar WiredNetWithDHCP.client[9].ipv4.ip packetDropUndefined:sum(packetBytes) 0
attr interpolationmode none
attr recordingmode sum(packetBytes)
attr source packetDropReasonIsUndefined(packetDropped)
attr title "packet drop: undefined, sum(packetBytes)"
par WiredNetWithDHCP.client[9].ipv4.arp typename "\"inet.networklayer.arp.ipv4.Arp\""
par WiredNetWithDHCP.client[9].ipv4.arp interfaceTableModule "\"WiredNetWithDHCP.client[9].interfaceTable\""
par WiredNetWithDHCP.client[9].ipv4.arp routingTableModule "\"WiredNetWithDHCP.client[9].ipv4.routingTable\""
par WiredNetWithDHCP.client[9].ipv4.arp retryTimeout 1s
attr unit s
par WiredNetWithDHCP.client[9].ipv4.arp retryCount 3
par WiredNetWithDHCP.client[9].ipv4.arp cacheTimeout 120s
attr unit s
par WiredNetWithDHCP.client[9].ipv4.arp proxyArpInterfaces "\"\""
scalar WiredNetWithDHCP.client[9].ipv4.arp arpResolutionFailed:count 0
attr recordingmode count
attr title "ARP failed resolutions, count"
scalar WiredNetWithDHCP.client[9].ipv4.arp arpResolutionCompleted:count 0
attr recordingmode count
attr title "ARP completed resolutions, count"
scalar WiredNetWithDHCP.client[9].ipv4.arp arpResolutionInitiated:count 0
attr recordingmode count
attr title "ARP initiated resolutions, count"
scalar WiredNetWithDHCP.client[9].ipv4.arp arpReplySent:count 0
attr recordingmode count
attr source arpReplySent
attr title "ARP replies sent, count"
scalar WiredNetWithDHCP.client[9].ipv4.arp arpReplySent:sum(packetBytes) 0
attr recordingmode sum(packetBytes)
attr source arpReplySent
attr title "ARP replies sent, sum(packetBytes)"
scalar WiredNetWithDHCP.client[9].ipv4.arp arpRequestSent:count 0
attr recordingmode count
attr source arpRequestSent
attr title "ARP request sent, count"
scalar WiredNetWithDHCP.client[9].ipv4.arp arpRequestSent:sum(packetBytes) 0
attr recordingmode sum(packetBytes)
attr source arpRequestSent
attr title "ARP request sent, sum(packetBytes)"
par WiredNetWithDHCP.client[9].ipv4.lp typename "\"inet.common.MessageDispatcher\""
par WiredNetWithDHCP.client[9].ipv4.lp displayStringTextFormat "\"processed %p pk (%l)\""
par WiredNetWithDHCP.client[9].ipv4.lp forwardServiceRegistration true
par WiredNetWithDHCP.client[9].ipv4.lp forwardProtocolRegistration true
par WiredNetWithDHCP.client[9].ipv4 typename "\"inet.networklayer.ipv4.Ipv4NetworkLayer\""
par WiredNetWithDHCP.client[9].ipv4 forwarding false
par WiredNetWithDHCP.client[9].ipv4 multicastForwarding false
par WiredNetWithDHCP.client[9].ipv4 interfaceTableModule "\"WiredNetWithDHCP.client[9].interfaceTable\""
par WiredNetWithDHCP.client[9].ipv4 displayStringTextFormat "\"%i\""
par WiredNetWithDHCP.client[9].nl typename "\"inet.common.MessageDispatcher\""
par WiredNetWithDHCP.client[9].nl displayStringTextFormat "\"processed %p pk (%l)\""
par WiredNetWithDHCP.client[9].nl forwardServiceRegistration true
par WiredNetWithDHCP.client[9].nl forwardProtocolRegistration true
par WiredNetWithDHCP.client[9].udp typename "\"inet.transportlayer.udp.Udp\""
par WiredNetWithDHCP.client[9].udp interfaceTableModule "\"WiredNetWithDHCP.client[9].interfaceTable\""
par WiredNetWithDHCP.client[9].udp icmpModule "\"^.ipv4.icmp\""
par WiredNetWithDHCP.client[9].udp icmpv6Module "\"^.ipv6.icmpv6\""
par WiredNetWithDHCP.client[9].udp crcMode "\"declared\""
attr enum disabled,declared,computed
par WiredNetWithDHCP.client[9].udp defaultMulticastLoop true
scalar WiredNetWithDHCP.client[9].udp packetReceived:count 1
attr interpolationmode none
attr recordingmode count
attr source packetReceived
attr title "packets received, count"
scalar WiredNetWithDHCP.client[9].udp packetReceived:sum(packetBytes) 267
attr interpolationmode none
attr recordingmode sum(packetBytes)
attr source packetReceived
attr title "packets received, sum(packetBytes)"
scalar WiredNetWithDHCP.client[9].udp packetSent:count 0
attr interpolationmode none
attr recordingmode count
attr source packetSent
attr title "packets sent, count"
scalar WiredNetWithDHCP.client[9].udp packetSent:sum(packetBytes) 0
attr interpolationmode none
attr recordingmode sum(packetBytes)
attr source packetSent
attr title "packets sent, sum(packetBytes)"
scalar WiredNetWithDHCP.client[9].udp passedUpPk:count 0
attr interpolationmode none
attr recordingmode count
attr source packetSentToUpper
attr title "packets passed up, count"
scalar WiredNetWithDHCP.client[9].udp droppedPkWrongPort:count 1
attr interpolationmode none
attr recordingmode count
attr source packetDropReasonIsNoPortFound(packetDropped)
attr title "packets dropped (wrong port), count"
scalar WiredNetWithDHCP.client[9].udp droppedPkBadChecksum:count 0
attr interpolationmode none
attr recordingmode count
attr source packetDropReasonIsIncorrectlyReceived(packetDropped)
attr title "packets dropped (checksum error), count"
par WiredNetWithDHCP.client[9].tcp typename "\"inet.transportlayer.tcp.Tcp\""
par WiredNetWithDHCP.client[9].tcp crcMode "\"declared\""
attr enum declared,computed
par WiredNetWithDHCP.client[9].tcp advertisedWindow 7504
par WiredNetWithDHCP.client[9].tcp delayedAcksEnabled false
par WiredNetWithDHCP.client[9].tcp nagleEnabled true
par WiredNetWithDHCP.client[9].tcp limitedTransmitEnabled false
par WiredNetWithDHCP.client[9].tcp increasedIWEnabled false
par WiredNetWithDHCP.client[9].tcp sackSupport false
par WiredNetWithDHCP.client[9].tcp windowScalingSupport false
par WiredNetWithDHCP.client[9].tcp windowScalingFactor -1
par WiredNetWithDHCP.client[9].tcp timestampSupport false
par WiredNetWithDHCP.client[9].tcp mss 536
par WiredNetWithDHCP.client[9].tcp msl 120s
attr unit s
par WiredNetWithDHCP.client[9].tcp tcpAlgorithmClass "\"TcpReno\""
par WiredNetWithDHCP.client[9].tcp useDataNotification false
par WiredNetWithDHCP.client[9].tcp dupthresh 3
par WiredNetWithDHCP.client[9].tcp initialSsthresh 4294967295
par WiredNetWithDHCP.client[9].tcp stopOperationExtraTime 0s
attr unit s
par WiredNetWithDHCP.client[9].tcp stopOperationTimeout 2s
attr unit s
par WiredNetWithDHCP.client[9].tcp ecnWillingness false
par WiredNetWithDHCP.client[9].tcp dctcpGamma 0.0625
par WiredNetWithDHCP.client[9].tn typename "\"inet.common.MessageDispatcher\""
par WiredNetWithDHCP.client[9].tn displayStringTextFormat "\"processed %p pk (%l)\""
par WiredNetWithDHCP.client[9].tn forwardServiceRegistration true
par WiredNetWithDHCP.client[9].tn forwardProtocolRegistration true
par WiredNetWithDHCP.client[9].app[0] typename "\"inet.applications.dhcp.DhcpClient\""
par WiredNetWithDHCP.client[9].app[0] interfaceTableModule "\"WiredNetWithDHCP.client[9].interfaceTable\""
par WiredNetWithDHCP.client[9].app[0] routingTableModule "\"^.ipv4.routingTable\""
par WiredNetWithDHCP.client[9].app[0] interface "\"\""
par WiredNetWithDHCP.client[9].app[0] startTime 0.623564s
attr unit s
par WiredNetWithDHCP.client[9].app[0] stopOperationExtraTime -1s
attr unit s
par WiredNetWithDHCP.client[9].app[0] stopOperationTimeout 2s
attr unit s
par WiredNetWithDHCP.client[9].at typename "\"inet.common.MessageDispatcher\""
par WiredNetWithDHCP.client[9].at displayStringTextFormat "\"processed %p pk (%l)\""
par WiredNetWithDHCP.client[9].at forwardServiceRegistration true
par WiredNetWithDHCP.client[9].at forwardProtocolRegistration true
par WiredNetWithDHCP.client[9] typename "\"inet.node.inet.StandardHost\""
par WiredNetWithDHCP.client[9] hasStatus false
par WiredNetWithDHCP.client[9] osgModel "\"\""
par WiredNetWithDHCP.client[9] osgModelColor "\"\""
par WiredNetWithDHCP.client[9] canvasImage "\"\""
par WiredNetWithDHCP.client[9] canvasImageColor "\"\""
par WiredNetWithDHCP.client[9] recordPcap false
par WiredNetWithDHCP.client[9] numPcapRecorders 0
par WiredNetWithDHCP.client[9] numLoInterfaces 1
par WiredNetWithDHCP.client[9] numWlanInterfaces 0
par WiredNetWithDHCP.client[9] numEthInterfaces 0
par WiredNetWithDHCP.client[9] numPppInterfaces 0
par WiredNetWithDHCP.client[9] numTunInterfaces 0
par WiredNetWithDHCP.client[9] numVirtInterfaces 0
par WiredNetWithDHCP.client[9] fcsMode "\"declared\""
attr enum declared,computed
par WiredNetWithDHCP.client[9] hasIpv4 true
par WiredNetWithDHCP.client[9] hasIpv6 false
par WiredNetWithDHCP.client[9] hasGn false
par WiredNetWithDHCP.client[9] forwarding false
par WiredNetWithDHCP.client[9] multicastForwarding false
par WiredNetWithDHCP.client[9] hasUdp true
par WiredNetWithDHCP.client[9] hasTcp true
par WiredNetWithDHCP.client[9] hasSctp false
par WiredNetWithDHCP.client[9] numApps 1
par WiredNetWithDHCP.configurator typename "\"inet.networklayer.configurator.ipv4.Ipv4NetworkConfigurator\""
par WiredNetWithDHCP.configurator minLinkWeight 0.001
par WiredNetWithDHCP.configurator configureIsolatedNetworksSeparatly false
par WiredNetWithDHCP.configurator config "<config>...</config> at content:1"
par WiredNetWithDHCP.configurator assignAddresses true
par WiredNetWithDHCP.configurator assignUniqueAddresses true
par WiredNetWithDHCP.configurator assignDisjunctSubnetAddresses true
par WiredNetWithDHCP.configurator addStaticRoutes true
par WiredNetWithDHCP.configurator addDefaultRoutes true
par WiredNetWithDHCP.configurator addSubnetRoutes true
par WiredNetWithDHCP.configurator addDirectRoutes true
par WiredNetWithDHCP.configurator optimizeRoutes true
par WiredNetWithDHCP.configurator dumpTopology false
par WiredNetWithDHCP.configurator dumpLinks false
par WiredNetWithDHCP.configurator dumpAddresses false
par WiredNetWithDHCP.configurator dumpRoutes false
par WiredNetWithDHCP.configurator dumpConfig "\"\""
par WiredNetWithDHCP typename "\"inet.examples.dhcp.WiredNetWithDHCP\""
par WiredNetWithDHCP numHosts 10

